$# LS-DYNA Keyword file created by LS-PrePost(R) V4.9.16-04Aug2023 
$# Created on Jan-21-2024 (14:32:43)
*KEYWORD   
*TITLE
$#                                                                         title

*CONTROL_ACCURACY
$#     osu       inn    pidosu      iacc     exacc     
         1         4         0         0       0.0
*CONTROL_CONTACT
$#  slsfac    rwpnal    islchk    shlthk    penopt    thkchg     orien    enmass
       0.1       1.0         0         0         0         0         0         0
$#  usrstr    usrfrc     nsbcs    interm     xpene     ssthk      ecdt   tiedprj
         0         0         0         0       0.0         0         0         0
$#   sfric     dfric       edc       vfc        th     th_sf    pen_sf      
       0.0       0.0       0.0       0.0       0.0       0.0       0.0
$#  ignore    frceng   skiprwg    outseg   spotstp   spotdel   spothin       
         1         0         0         0         0         0       0.0
$#    isym    nserod    rwgaps    rwgdth     rwksf      icov    swradf    ithoff
         0         0         0       0.0       0.0         0       0.0         0
$#  shledg    pstiff    ithcnt    tdcnof     ftall    unused    shltrw    igactc
         0         0         0         0         0                 0.0         0
*CONTROL_ENERGY
$#    hgen      rwen    slnten     rylen     irgen     maten     drlen     disen
         2         2         2         2         0         0         0         0
*CONTROL_HOURGLASS
$#     ihq        qh  
         1       0.1
*CONTROL_MPP_IO_NODUMP
*CONTROL_OUTPUT
$#   npopt    neecho    nrefup    iaccop     opifs    ipnint    ikedit    iflush
         1         3         0         1       0.0         0      9000         0
$#   iprtf    ierode   tet10s8    msgmax    ipcurv      gmdt   ip1dblt      eocs
         3         0         0         0         0       0.0         0         0
$#   tolev    newleg    frfreq     minfo    solsig    msgflg    cdetol      
         0         0         0         0         0         0       0.0
$# phschng    demden   icrfile   spc2bnd    penout    shlsig   hisnout    engout
         0         0         0         0         0         0         0         0
$#    insf    isolsf      ibsf      issf    mlkbag      
         0         0         0         0         0
*CONTROL_SHELL
$#  wrpang     esort     irnxx    istupd    theory       bwc     miter      proj
      20.0         1        -1         0        16         2         1         1
$# rotascl    intgrd    lamsht    cstyp6    thshel      
       0.0         0         0         0         0
$# psstupd   sidt4tu     cntco    itsflg    irquad    w-mode   stretch      icrq
         0         0         0         0         0       0.0       0.0         0
$#  nfail1    nfail4   psnfail    keepcs     delfr   drcpsid    drcprm   intperr
         0         0         0         0         0         0       0.0         0
*CONTROL_SOLID
$#   esort   fmatrix   niptets    swlocl    psfail   t10jtol      icoh    tet13k
         1         0         0         0         0       0.0         0         0
$#   pm1     pm2     pm3     pm4     pm5     pm6     pm7     pm8     pm9    pm10
       0       0       0       0       0       0       0       0       0       0
*CONTROL_TERMINATION
$#  endtim    endcyc     dtmin    endeng    endmas     nosol     
     100.0         0       0.1       0.0       3.0         0
*CONTROL_TIMESTEP
$#  dtinit    tssfac      isdo    tslimt     dt2ms      lctm     erode     ms1st
       0.0       0.9         0       0.0    -0.001         0         0         0
$#  dt2msf   dt2mslc     imscl    unused    unused     rmscl     emscl      ihdo
       0.0         0         0                           0.0       0.0         0
*DATABASE_ABSTAT
$#      dt    binary      lcur     ioopt     
       0.1         3         0         0
*DATABASE_BNDOUT
$#      dt    binary      lcur     ioopt   option1   option2   option3   option4
       0.1         3         0         0         0         0         0         0
*DATABASE_ELOUT
$#      dt    binary      lcur     ioopt   option1   option2   option3   option4
       0.1         3         0         0         0         0         0         0
*DATABASE_GLSTAT
$#      dt    binary      lcur     ioopt     
       0.1         3         0         0
*DATABASE_MATSUM
$#      dt    binary      lcur     ioopt     
       0.1         3         0         0
*DATABASE_NODOUT
$#      dt    binary      lcur     ioopt   option1   option2       
       0.1         3         0         0       0.0         0
*DATABASE_RCFORC
$#      dt    binary      lcur     ioopt     
       0.1         3         0         0
*DATABASE_RWFORC
$#      dt    binary      lcur     ioopt     
       0.1         3         0         0
*DATABASE_SECFORC
$#      dt    binary      lcur     ioopt     
       0.1         3         0         0
*DATABASE_BINARY_D3PLOT
$#      dt      lcdt      beam     npltc    psetid      
       5.0         0         0         0         0
$#   ioopt      rate    cutoff    window      type      pset    
         0       0.0       0.0       0.0         0         0
*DATABASE_EXTENT_BINARY
$#   neiph     neips    maxint    strflg    sigflg    epsflg    rltflg    engflg
         0         0         3         0         2         1         2         2
$#  cmpflg    ieverp    beamip     dcomp      shge     stssz    n3thdt   ialemat
         0         1         0         4         1         1         1         1
$# nintsld   pkp_sen      sclp     hydro     msscl     therm    intout    nodout
         0         0       0.0         0         0         0                    
$#    dtdt    resplt     neipb     
         0         0         0
*DATABASE_FORMAT
$#   iform   ibinary       
         0         1
*DATABASE_CROSS_SECTION_SET_ID
$#    csid                                                                 title
         1New SECT 1
$#    nsid      hsid      bsid      ssid      tsid      dsid        id     itype
        30         0         0        29         0         0         1         2
*SET_NODE_LIST_TITLE
SECTION
$#     sid       da1       da2       da3       da4    solver       its         -
        30       0.0       0.0       0.0       0.0                              
$#    nid1      nid2      nid3      nid4      nid5      nid6      nid7      nid8
      5896      5934      6017      6018      6019      6020      6021      6022
      6023      6096      6135      6140      6141      6142      6143      6144
      6183      6184      6185      6186      6187      6344      6396      6406
      6408      6410      6421      6423      6425      6512      6528      6554
      6555      6556      6557      6558      6661      6701      6706      6707
      6708      6709      6710      6756      6757      6758      6759      6760
      6905      6961      6968      6970      6978      6980         0         0
*DATABASE_HISTORY_NODE_LOCAL_ID
$#      id       cid       ref   
      6701         0         1
$#                                                             heading       
From /ACCEL ID 1
*DATABASE_HISTORY_NODE_LOCAL_ID
$#      id       cid       ref   
      6649         0         1
$#                                                             heading       
From /ACCEL ID 2
*BOUNDARY_SPC_SET
$#    nsid       cid      dofx      dofy      dofz     dofrx     dofry     dofrz
        20         0         0         1         1         1         1         1
*SET_NODE_LIST_TITLE
BCS_group_20_of_NODE
$#     sid       da1       da2       da3       da4    solver       its         -
        20       0.0       0.0       0.0       0.0                              
$#    nid1      nid2      nid3      nid4      nid5      nid6      nid7      nid8
     14153         0         0         0         0         0         0         0
*LOAD_BODY_GENERALIZED_SET_NODE
$#    nsid        n2      lcid    drlcid        xc        yc        zc  
        23         0        13         0       0.0       0.0       0.0
$#      ax        ay        az       omx       omy       omz       cid    angtyp
       0.0       0.0       1.0       0.0       0.0       0.0         0          
*CONTACT_AUTOMATIC_NODES_TO_SURFACE_ID
$#     cid                                                                 title
        13all_vs_all
$#   surfa     surfb  surfatyp  surfbtyp   saboxid   sbboxid      sapr      sbpr
        18        17         4         0         0         0         0         0
$#      fs        fd        dc        vc       vdc    penchk        bt        dt
       0.0       0.0       0.0       0.0       0.0         0       0.0       0.0
$#    sfsa      sfsb      sast      sbst     sfsat     sfsbt       fsf       vsf
       0.0       0.0       0.0       0.0       0.0       0.0       0.0       0.0
*SET_NODE_ADD_ADVANCED_TITLE
INTER_group_18_of_SURF
$#     sid       da1       da2       da3       da4   
        18       0.0       0.0       0.0       0.0
$#    sid1     type1      sid2     type2      sid3     type3      sid4     type4
        17         5         0         0         0         0         0         0
*SET_SEGMENT_GENERAL_TITLE
INTER_group_17_of_PART
$#     sid       da1       da2       da3       da4    solver       its         -
        17       0.0       0.0       0.0       0.0                   0          
$#  option        e1        e2        e3        e4        e5        e6        e7
PART               4         5         6         0         0         0         0
PART               7         8         9         0         0         0         0
PART              10        15        16         0         0         0         0
PART              17        18        19         0         0         0         0
PART              20        21         0         0         0         0         0
*CONTACT_TIED_SHELL_EDGE_TO_SURFACE_BEAM_OFFSET_ID
$#     cid                                                                 title
        28CONNECTION
$#   surfa     surfb  surfatyp  surfbtyp   saboxid   sbboxid      sapr      sbpr
        55        61         4         0         0         0         0         0
$#      fs        fd        dc        vc       vdc    penchk        bt        dt
       0.0       0.0       0.0       0.0       0.0         0       0.0       0.0
$#    sfsa      sfsb      sast      sbst     sfsat     sfsbt       fsf       vsf
       1.0       1.0       0.0       0.0       0.0       0.0       0.0       0.0
*SET_NODE_LIST_TITLE
GROUP 55 FOR CONNECTION
$#     sid       da1       da2       da3       da4    solver       its         -
        55       0.0       0.0       0.0       0.0                              
$#    nid1      nid2      nid3      nid4      nid5      nid6      nid7      nid8
     14304     14306     14308     14310     14312     14314     14316     14318
     14320     14322     14324     14326     14328     14330     14332     14334
     14336     14338     14340     14342     14344         0         0         0
*SET_SEGMENT_GENERAL_TITLE
GROUP       61 FOR CONNECTION
$#     sid       da1       da2       da3       da4    solver       its         -
        61       0.0       0.0       0.0       0.0                   0          
$#  option        e1        e2        e3        e4        e5        e6        e7
PART              15         0         0         0         0         0         0
*CONTACT_TIED_SHELL_EDGE_TO_SURFACE_BEAM_OFFSET_ID
$#     cid                                                                 title
        29CONNECTION
$#   surfa     surfb  surfatyp  surfbtyp   saboxid   sbboxid      sapr      sbpr
        56        62         4         0         0         0         0         0
$#      fs        fd        dc        vc       vdc    penchk        bt        dt
       0.0       0.0       0.0       0.0       0.0         0       0.0       0.0
$#    sfsa      sfsb      sast      sbst     sfsat     sfsbt       fsf       vsf
       1.0       1.0       0.0       0.0       0.0       0.0       0.0       0.0
*SET_NODE_LIST_TITLE
GROUP 56 FOR CONNECTION
$#     sid       da1       da2       da3       da4    solver       its         -
        56       0.0       0.0       0.0       0.0                              
$#    nid1      nid2      nid3      nid4      nid5      nid6      nid7      nid8
     14305     14307     14309     14311     14313     14315     14317     14319
     14321     14323     14325     14327     14329     14331     14333     14335
     14337     14339     14341     14343     14345         0         0         0
*SET_SEGMENT_GENERAL_TITLE
GROUP       62 FOR CONNECTION
$#     sid       da1       da2       da3       da4    solver       its         -
        62       0.0       0.0       0.0       0.0                   0          
$#  option        e1        e2        e3        e4        e5        e6        e7
PART              16         0         0         0         0         0         0
*CONTACT_TIED_SHELL_EDGE_TO_SURFACE_BEAM_OFFSET_ID
$#     cid                                                                 title
        30CONNECTION
$#   surfa     surfb  surfatyp  surfbtyp   saboxid   sbboxid      sapr      sbpr
        63        67         4         0         0         0         0         0
$#      fs        fd        dc        vc       vdc    penchk        bt        dt
       0.0       0.0       0.0       0.0       0.0         0       0.0       0.0
$#    sfsa      sfsb      sast      sbst     sfsat     sfsbt       fsf       vsf
       1.0       1.0       0.0       0.0       0.0       0.0       0.0       0.0
*SET_NODE_LIST_TITLE
GROUP 63 FOR CONNECTION
$#     sid       da1       da2       da3       da4    solver       its         -
        63       0.0       0.0       0.0       0.0                              
$#    nid1      nid2      nid3      nid4      nid5      nid6      nid7      nid8
     14346     14348     14350     14352     14354     14356     14358     14360
     14362         0         0         0         0         0         0         0
*SET_SEGMENT_GENERAL_TITLE
GROUP       67 FOR CONNECTION
$#     sid       da1       da2       da3       da4    solver       its         -
        67       0.0       0.0       0.0       0.0                   0          
$#  option        e1        e2        e3        e4        e5        e6        e7
PART              16         0         0         0         0         0         0
*CONTACT_TIED_SHELL_EDGE_TO_SURFACE_BEAM_OFFSET_ID
$#     cid                                                                 title
        31CONNECTION
$#   surfa     surfb  surfatyp  surfbtyp   saboxid   sbboxid      sapr      sbpr
        64        68         4         0         0         0         0         0
$#      fs        fd        dc        vc       vdc    penchk        bt        dt
       0.0       0.0       0.0       0.0       0.0         0       0.0       0.0
$#    sfsa      sfsb      sast      sbst     sfsat     sfsbt       fsf       vsf
       1.0       1.0       0.0       0.0       0.0       0.0       0.0       0.0
*SET_NODE_LIST_TITLE
GROUP 64 FOR CONNECTION
$#     sid       da1       da2       da3       da4    solver       its         -
        64       0.0       0.0       0.0       0.0                              
$#    nid1      nid2      nid3      nid4      nid5      nid6      nid7      nid8
     14347     14349     14351     14353     14355     14357     14359     14361
     14363         0         0         0         0         0         0         0
*SET_SEGMENT_GENERAL_TITLE
GROUP       68 FOR CONNECTION
$#     sid       da1       da2       da3       da4    solver       its         -
        68       0.0       0.0       0.0       0.0                   0          
$#  option        e1        e2        e3        e4        e5        e6        e7
PART              21         0         0         0         0         0         0
*CONTACT_TIED_SHELL_EDGE_TO_SURFACE_BEAM_OFFSET_ID
$#     cid                                                                 title
        32CONNECTION
$#   surfa     surfb  surfatyp  surfbtyp   saboxid   sbboxid      sapr      sbpr
        65        69         4         0         0         0         0         0
$#      fs        fd        dc        vc       vdc    penchk        bt        dt
       0.0       0.0       0.0       0.0       0.0         0       0.0       0.0
$#    sfsa      sfsb      sast      sbst     sfsat     sfsbt       fsf       vsf
       1.0       1.0       0.0       0.0       0.0       0.0       0.0       0.0
*SET_NODE_LIST_TITLE
GROUP 65 FOR CONNECTION
$#     sid       da1       da2       da3       da4    solver       its         -
        65       0.0       0.0       0.0       0.0                              
$#    nid1      nid2      nid3      nid4      nid5      nid6      nid7      nid8
     14364     14366     14368     14370     14372     14374     14376     14378
     14380         0         0         0         0         0         0         0
*SET_SEGMENT_GENERAL_TITLE
GROUP       69 FOR CONNECTION
$#     sid       da1       da2       da3       da4    solver       its         -
        69       0.0       0.0       0.0       0.0                   0          
$#  option        e1        e2        e3        e4        e5        e6        e7
PART              15         0         0         0         0         0         0
*CONTACT_TIED_SHELL_EDGE_TO_SURFACE_BEAM_OFFSET_ID
$#     cid                                                                 title
        33CONNECTION
$#   surfa     surfb  surfatyp  surfbtyp   saboxid   sbboxid      sapr      sbpr
        66        70         4         0         0         0         0         0
$#      fs        fd        dc        vc       vdc    penchk        bt        dt
       0.0       0.0       0.0       0.0       0.0         0       0.0       0.0
$#    sfsa      sfsb      sast      sbst     sfsat     sfsbt       fsf       vsf
       1.0       1.0       0.0       0.0       0.0       0.0       0.0       0.0
*SET_NODE_LIST_TITLE
GROUP 66 FOR CONNECTION
$#     sid       da1       da2       da3       da4    solver       its         -
        66       0.0       0.0       0.0       0.0                              
$#    nid1      nid2      nid3      nid4      nid5      nid6      nid7      nid8
     14365     14367     14369     14371     14373     14375     14377     14379
     14381         0         0         0         0         0         0         0
*SET_SEGMENT_GENERAL_TITLE
GROUP       70 FOR CONNECTION
$#     sid       da1       da2       da3       da4    solver       its         -
        70       0.0       0.0       0.0       0.0                   0          
$#  option        e1        e2        e3        e4        e5        e6        e7
PART              21         0         0         0         0         0         0
*CONTACT_TIED_SHELL_EDGE_TO_SURFACE_BEAM_OFFSET_ID
$#     cid                                                                 title
        34CONNECTION
$#   surfa     surfb  surfatyp  surfbtyp   saboxid   sbboxid      sapr      sbpr
        71        77         4         0         0         0         0         0
$#      fs        fd        dc        vc       vdc    penchk        bt        dt
       0.0       0.0       0.0       0.0       0.0         0       0.0       0.0
$#    sfsa      sfsb      sast      sbst     sfsat     sfsbt       fsf       vsf
       1.0       1.0       0.0       0.0       0.0       0.0       0.0       0.0
*SET_NODE_LIST_TITLE
GROUP 71 FOR CONNECTION
$#     sid       da1       da2       da3       da4    solver       its         -
        71       0.0       0.0       0.0       0.0                              
$#    nid1      nid2      nid3      nid4      nid5      nid6      nid7      nid8
     14382     14384     14386     14388     14390     14392     14394     14396
     14398         0         0         0         0         0         0         0
*SET_SEGMENT_GENERAL_TITLE
GROUP       77 FOR CONNECTION
$#     sid       da1       da2       da3       da4    solver       its         -
        77       0.0       0.0       0.0       0.0                   0          
$#  option        e1        e2        e3        e4        e5        e6        e7
PART               5         0         0         0         0         0         0
*CONTACT_TIED_SHELL_EDGE_TO_SURFACE_BEAM_OFFSET_ID
$#     cid                                                                 title
        35CONNECTION
$#   surfa     surfb  surfatyp  surfbtyp   saboxid   sbboxid      sapr      sbpr
        72        78         4         0         0         0         0         0
$#      fs        fd        dc        vc       vdc    penchk        bt        dt
       0.0       0.0       0.0       0.0       0.0         0       0.0       0.0
$#    sfsa      sfsb      sast      sbst     sfsat     sfsbt       fsf       vsf
       1.0       1.0       0.0       0.0       0.0       0.0       0.0       0.0
*SET_NODE_LIST_TITLE
GROUP 72 FOR CONNECTION
$#     sid       da1       da2       da3       da4    solver       its         -
        72       0.0       0.0       0.0       0.0                              
$#    nid1      nid2      nid3      nid4      nid5      nid6      nid7      nid8
     14383     14385     14387     14389     14391     14393     14395     14397
     14399         0         0         0         0         0         0         0
*SET_SEGMENT_GENERAL_TITLE
GROUP       78 FOR CONNECTION
$#     sid       da1       da2       da3       da4    solver       its         -
        78       0.0       0.0       0.0       0.0                   0          
$#  option        e1        e2        e3        e4        e5        e6        e7
PART              10         0         0         0         0         0         0
*CONTACT_TIED_SHELL_EDGE_TO_SURFACE_BEAM_OFFSET_ID
$#     cid                                                                 title
        36CONNECTION
$#   surfa     surfb  surfatyp  surfbtyp   saboxid   sbboxid      sapr      sbpr
        73        79         4         0         0         0         0         0
$#      fs        fd        dc        vc       vdc    penchk        bt        dt
       0.0       0.0       0.0       0.0       0.0         0       0.0       0.0
$#    sfsa      sfsb      sast      sbst     sfsat     sfsbt       fsf       vsf
       1.0       1.0       0.0       0.0       0.0       0.0       0.0       0.0
*SET_NODE_LIST_TITLE
GROUP 73 FOR CONNECTION
$#     sid       da1       da2       da3       da4    solver       its         -
        73       0.0       0.0       0.0       0.0                              
$#    nid1      nid2      nid3      nid4      nid5      nid6      nid7      nid8
     14400     14402     14404     14406     14408     14410     14412     14414
     14416         0         0         0         0         0         0         0
*SET_SEGMENT_GENERAL_TITLE
GROUP       79 FOR CONNECTION
$#     sid       da1       da2       da3       da4    solver       its         -
        79       0.0       0.0       0.0       0.0                   0          
$#  option        e1        e2        e3        e4        e5        e6        e7
PART               4         0         0         0         0         0         0
*CONTACT_TIED_SHELL_EDGE_TO_SURFACE_BEAM_OFFSET_ID
$#     cid                                                                 title
        37CONNECTION
$#   surfa     surfb  surfatyp  surfbtyp   saboxid   sbboxid      sapr      sbpr
        74        80         4         0         0         0         0         0
$#      fs        fd        dc        vc       vdc    penchk        bt        dt
       0.0       0.0       0.0       0.0       0.0         0       0.0       0.0
$#    sfsa      sfsb      sast      sbst     sfsat     sfsbt       fsf       vsf
       1.0       1.0       0.0       0.0       0.0       0.0       0.0       0.0
*SET_NODE_LIST_TITLE
GROUP 74 FOR CONNECTION
$#     sid       da1       da2       da3       da4    solver       its         -
        74       0.0       0.0       0.0       0.0                              
$#    nid1      nid2      nid3      nid4      nid5      nid6      nid7      nid8
     14401     14403     14405     14407     14409     14411     14413     14415
     14417         0         0         0         0         0         0         0
*SET_SEGMENT_GENERAL_TITLE
GROUP       80 FOR CONNECTION
$#     sid       da1       da2       da3       da4    solver       its         -
        80       0.0       0.0       0.0       0.0                   0          
$#  option        e1        e2        e3        e4        e5        e6        e7
PART              10         0         0         0         0         0         0
*CONTACT_TIED_SHELL_EDGE_TO_SURFACE_BEAM_OFFSET_ID
$#     cid                                                                 title
        38CONNECTION
$#   surfa     surfb  surfatyp  surfbtyp   saboxid   sbboxid      sapr      sbpr
        75        81         4         0         0         0         0         0
$#      fs        fd        dc        vc       vdc    penchk        bt        dt
       0.0       0.0       0.0       0.0       0.0         0       0.0       0.0
$#    sfsa      sfsb      sast      sbst     sfsat     sfsbt       fsf       vsf
       1.0       1.0       0.0       0.0       0.0       0.0       0.0       0.0
*SET_NODE_LIST_TITLE
GROUP 75 FOR CONNECTION
$#     sid       da1       da2       da3       da4    solver       its         -
        75       0.0       0.0       0.0       0.0                              
$#    nid1      nid2      nid3      nid4      nid5      nid6      nid7      nid8
     14418     14420     14422     14424     14426     14428     14430     14432
     14434     14436     14438     14440     14442     14444     14446     14448
     14450     14452     14454     14456     14458         0         0         0
*SET_SEGMENT_GENERAL_TITLE
GROUP       81 FOR CONNECTION
$#     sid       da1       da2       da3       da4    solver       its         -
        81       0.0       0.0       0.0       0.0                   0          
$#  option        e1        e2        e3        e4        e5        e6        e7
PART               4         0         0         0         0         0         0
*CONTACT_TIED_SHELL_EDGE_TO_SURFACE_BEAM_OFFSET_ID
$#     cid                                                                 title
        39CONNECTION
$#   surfa     surfb  surfatyp  surfbtyp   saboxid   sbboxid      sapr      sbpr
        76        82         4         0         0         0         0         0
$#      fs        fd        dc        vc       vdc    penchk        bt        dt
       0.0       0.0       0.0       0.0       0.0         0       0.0       0.0
$#    sfsa      sfsb      sast      sbst     sfsat     sfsbt       fsf       vsf
       1.0       1.0       0.0       0.0       0.0       0.0       0.0       0.0
*SET_NODE_LIST_TITLE
GROUP 76 FOR CONNECTION
$#     sid       da1       da2       da3       da4    solver       its         -
        76       0.0       0.0       0.0       0.0                              
$#    nid1      nid2      nid3      nid4      nid5      nid6      nid7      nid8
     14419     14421     14423     14425     14427     14429     14431     14433
     14435     14437     14439     14441     14443     14445     14447     14449
     14451     14453     14455     14457     14459         0         0         0
*SET_SEGMENT_GENERAL_TITLE
GROUP       82 FOR CONNECTION
$#     sid       da1       da2       da3       da4    solver       its         -
        82       0.0       0.0       0.0       0.0                   0          
$#  option        e1        e2        e3        e4        e5        e6        e7
PART               5         0         0         0         0         0         0
*PART
$#                                                                         title
crash_box_upper
$#     pid     secid       mid     eosid      hgid      grav    adpopt      tmid
         4         1         1         0         2         0         0         0
*SECTION_SHELL
$#   secid    elform      shrf       nip     propt   qr/irid     icomp     setyp
         1        16  0.833333         5       0.0         0         0         0
$#      t1        t2        t3        t4      nloc     marea      idof    edgset
       2.2       2.2       2.2       2.2       0.0       0.0       0.0         0
*MAT_SIMPLIFIED_JOHNSON_COOK_TITLE
Steel_DP600
$#     mid        ro         e        pr        vp  
         17.85000E-6     210.0       0.3       0.0
$#       a         b         n         c    psfail    sigmax    sigsat      epso
       0.3       0.3       0.3       0.0       0.0       0.0       0.0       0.0
*HOURGLASS
$#    hgid       ihq        qm       ibq        q1        q2    qb/vdc        qw
         2         8       0.1         0       1.5      0.06       0.0       0.0
*PART
$#                                                                         title
crash_box_lower
$#     pid     secid       mid     eosid      hgid      grav    adpopt      tmid
         5         1         1         0         2         0         0         0
*PART
$#                                                                         title
BumperBeam_upper
$#     pid     secid       mid     eosid      hgid      grav    adpopt      tmid
         6         2         2         0         2         0         0         0
*SECTION_SHELL
$#   secid    elform      shrf       nip     propt   qr/irid     icomp     setyp
         2        16  0.833333         5       0.0         0         0         0
$#      t1        t2        t3        t4      nloc     marea      idof    edgset
       1.8       1.8       1.8       1.8       0.0       0.0       0.0         0
*MAT_SIMPLIFIED_JOHNSON_COOK_TITLE
Steel_DP1000
$#     mid        ro         e        pr        vp  
         27.85000E-6     210.0       0.3       0.0
$#       a         b         n         c    psfail    sigmax    sigsat      epso
       0.5       0.5       0.5       0.0       0.0       0.0       0.0       0.0
*PART
$#                                                                         title
BumperBeam_mid
$#     pid     secid       mid     eosid      hgid      grav    adpopt      tmid
         7         2         2         0         2         0         0         0
*PART
$#                                                                         title
BumperBeam_lower
$#     pid     secid       mid     eosid      hgid      grav    adpopt      tmid
         8         2         2         0         2         0         0         0
*PART
$#                                                                         title
BumperBeam_front
$#     pid     secid       mid     eosid      hgid      grav    adpopt      tmid
         9         2         2         0         2         0         0         0
*PART
$#                                                                         title
BumperBeam_rear
$#     pid     secid       mid     eosid      hgid      grav    adpopt      tmid
        10         2         2         0         2         0         0         0
*PART
$#                                                                         title
CONNECTION_SPOTWELD
$#     pid     secid       mid     eosid      hgid      grav    adpopt      tmid
        11         3 100000003         0         0         0         0         0
*SECTION_BEAM_TITLE
SPOTWELD_NO_RUPTURE
$#   secid    elform      shrf   qr/irid       cst     scoor       nsm     naupd
         3         6       1.0         2         0       2.0       0.0         0
$#     vol      iner       cid        ca    offset     rrcon     srcon     trcon
  255.4278      0.02         0       0.0       0.0       0.0       0.0       0.0
*MAT_GENERAL_SPRING_DISCRETE_BEAM_TITLE
SPOTWELD_NO_RUPTURE
$#     mid        ro         -         -         -         -         -    dospot
 1000000037.83000E-6                                                           0
$#     dof      type         k         d       cdf       tdf   
         1         1     100.0       0.0       0.0       0.0
$#   flcid     hlcid        c1        c2       dle     glcid     
         2         0       0.0       0.0       1.0         0
$#     dof      type         k         d       cdf       tdf   
         2         1     500.0       0.0       0.0       0.0
$#   flcid     hlcid        c1        c2       dle     glcid     
         1         0       0.0       0.0       1.0         0
$#     dof      type         k         d       cdf       tdf   
         3         1     500.0       0.0       0.0       0.0
$#   flcid     hlcid        c1        c2       dle     glcid     
         1         0       0.0       0.0       1.0         0
$#     dof      type         k         d       cdf       tdf   
         4         1    5000.0       0.0       0.0       0.0
$#   flcid     hlcid        c1        c2       dle     glcid     
         0         0       0.0       0.0       1.0         0
$#     dof      type         k         d       cdf       tdf   
         5         1    5000.0       0.0       0.0       0.0
$#   flcid     hlcid        c1        c2       dle     glcid     
         0         0       0.0       0.0       1.0         0
$#     dof      type         k         d       cdf       tdf   
         6         1    5000.0       0.0       0.0       0.0
$#   flcid     hlcid        c1        c2       dle     glcid     
         0         0       0.0       0.0       1.0         0
*PART
$#                                                                         title
CONNECTION_SPOTWELD
$#     pid     secid       mid     eosid      hgid      grav    adpopt      tmid
        12         4 100000004         0         0         0         0         0
*SECTION_BEAM_TITLE
SPOTWELD_NO_RUPTURE
$#   secid    elform      shrf   qr/irid       cst     scoor       nsm     naupd
         4         6       1.0         2         0       2.0       0.0         0
$#     vol      iner       cid        ca    offset     rrcon     srcon     trcon
  255.4278      0.02         0       0.0       0.0       0.0       0.0       0.0
*MAT_GENERAL_SPRING_DISCRETE_BEAM_TITLE
SPOTWELD_NO_RUPTURE
$#     mid        ro         -         -         -         -         -    dospot
 1000000047.83000E-6                                                           0
$#     dof      type         k         d       cdf       tdf   
         1         1     100.0       0.0       0.0       0.0
$#   flcid     hlcid        c1        c2       dle     glcid     
         4         0       0.0       0.0       1.0         0
$#     dof      type         k         d       cdf       tdf   
         2         1     500.0       0.0       0.0       0.0
$#   flcid     hlcid        c1        c2       dle     glcid     
         3         0       0.0       0.0       1.0         0
$#     dof      type         k         d       cdf       tdf   
         3         1     500.0       0.0       0.0       0.0
$#   flcid     hlcid        c1        c2       dle     glcid     
         3         0       0.0       0.0       1.0         0
$#     dof      type         k         d       cdf       tdf   
         4         1    5000.0       0.0       0.0       0.0
$#   flcid     hlcid        c1        c2       dle     glcid     
         0         0       0.0       0.0       1.0         0
$#     dof      type         k         d       cdf       tdf   
         5         1    5000.0       0.0       0.0       0.0
$#   flcid     hlcid        c1        c2       dle     glcid     
         0         0       0.0       0.0       1.0         0
$#     dof      type         k         d       cdf       tdf   
         6         1    5000.0       0.0       0.0       0.0
$#   flcid     hlcid        c1        c2       dle     glcid     
         0         0       0.0       0.0       1.0         0
*PART
$#                                                                         title
CONNECTION_SPOTWELD
$#     pid     secid       mid     eosid      hgid      grav    adpopt      tmid
        13         5 100000005         0         0         0         0         0
*SECTION_BEAM_TITLE
SPOTWELD_NO_RUPTURE
$#   secid    elform      shrf   qr/irid       cst     scoor       nsm     naupd
         5         6       1.0         2         0       2.0       0.0         0
$#     vol      iner       cid        ca    offset     rrcon     srcon     trcon
  255.4278      0.02         0       0.0       0.0       0.0       0.0       0.0
*MAT_GENERAL_SPRING_DISCRETE_BEAM_TITLE
SPOTWELD_NO_RUPTURE
$#     mid        ro         -         -         -         -         -    dospot
 1000000057.83000E-6                                                           0
$#     dof      type         k         d       cdf       tdf   
         1         1     100.0       0.0       0.0       0.0
$#   flcid     hlcid        c1        c2       dle     glcid     
         6         0       0.0       0.0       1.0         0
$#     dof      type         k         d       cdf       tdf   
         2         1     500.0       0.0       0.0       0.0
$#   flcid     hlcid        c1        c2       dle     glcid     
         5         0       0.0       0.0       1.0         0
$#     dof      type         k         d       cdf       tdf   
         3         1     500.0       0.0       0.0       0.0
$#   flcid     hlcid        c1        c2       dle     glcid     
         5         0       0.0       0.0       1.0         0
$#     dof      type         k         d       cdf       tdf   
         4         1    5000.0       0.0       0.0       0.0
$#   flcid     hlcid        c1        c2       dle     glcid     
         0         0       0.0       0.0       1.0         0
$#     dof      type         k         d       cdf       tdf   
         5         1    5000.0       0.0       0.0       0.0
$#   flcid     hlcid        c1        c2       dle     glcid     
         0         0       0.0       0.0       1.0         0
$#     dof      type         k         d       cdf       tdf   
         6         1    5000.0       0.0       0.0       0.0
$#   flcid     hlcid        c1        c2       dle     glcid     
         0         0       0.0       0.0       1.0         0
*PART
$#                                                                         title
crash_box_upper
$#     pid     secid       mid     eosid      hgid      grav    adpopt      tmid
        15         6         1         0         2         0         0         0
*SECTION_SHELL
$#   secid    elform      shrf       nip     propt   qr/irid     icomp     setyp
         6        16  0.833333         5       0.0         0         0         0
$#      t1        t2        t3        t4      nloc     marea      idof    edgset
       2.2       2.2       2.2       2.2       0.0       0.0       0.0         0
*PART
$#                                                                         title
crash_box_lower
$#     pid     secid       mid     eosid      hgid      grav    adpopt      tmid
        16         6         1         0         2         0         0         0
*PART
$#                                                                         title
BumperBeam_upper
$#     pid     secid       mid     eosid      hgid      grav    adpopt      tmid
        17         7         2         0         2         0         0         0
*SECTION_SHELL
$#   secid    elform      shrf       nip     propt   qr/irid     icomp     setyp
         7        16  0.833333         5       0.0         0         0         0
$#      t1        t2        t3        t4      nloc     marea      idof    edgset
       1.8       1.8       1.8       1.8       0.0       0.0       0.0         0
*PART
$#                                                                         title
BumperBeam_mid
$#     pid     secid       mid     eosid      hgid      grav    adpopt      tmid
        18         7         2         0         2         0         0         0
*PART
$#                                                                         title
BumperBeam_lower
$#     pid     secid       mid     eosid      hgid      grav    adpopt      tmid
        19         7         2         0         2         0         0         0
*PART
$#                                                                         title
BumperBeam_front
$#     pid     secid       mid     eosid      hgid      grav    adpopt      tmid
        20         7         2         0         2         0         0         0
*PART
$#                                                                         title
BumperBeam_rear
$#     pid     secid       mid     eosid      hgid      grav    adpopt      tmid
        21         7         2         0         2         0         0         0
*PART
$#                                                                         title
CONNECTION_SPOTWELD
$#     pid     secid       mid     eosid      hgid      grav    adpopt      tmid
        22         8 100000008         0         0         0         0         0
*SECTION_BEAM_TITLE
SPOTWELD_NO_RUPTURE
$#   secid    elform      shrf   qr/irid       cst     scoor       nsm     naupd
         8         6       1.0         2         0       2.0       0.0         0
$#     vol      iner       cid        ca    offset     rrcon     srcon     trcon
  255.4278      0.02         0       0.0       0.0       0.0       0.0       0.0
*MAT_GENERAL_SPRING_DISCRETE_BEAM_TITLE
SPOTWELD_NO_RUPTURE
$#     mid        ro         -         -         -         -         -    dospot
 1000000087.83000E-6                                                           0
$#     dof      type         k         d       cdf       tdf   
         1         1     100.0       0.0       0.0       0.0
$#   flcid     hlcid        c1        c2       dle     glcid     
         8         0       0.0       0.0       1.0         0
$#     dof      type         k         d       cdf       tdf   
         2         1     500.0       0.0       0.0       0.0
$#   flcid     hlcid        c1        c2       dle     glcid     
         7         0       0.0       0.0       1.0         0
$#     dof      type         k         d       cdf       tdf   
         3         1     500.0       0.0       0.0       0.0
$#   flcid     hlcid        c1        c2       dle     glcid     
         7         0       0.0       0.0       1.0         0
$#     dof      type         k         d       cdf       tdf   
         4         1    5000.0       0.0       0.0       0.0
$#   flcid     hlcid        c1        c2       dle     glcid     
         0         0       0.0       0.0       1.0         0
$#     dof      type         k         d       cdf       tdf   
         5         1    5000.0       0.0       0.0       0.0
$#   flcid     hlcid        c1        c2       dle     glcid     
         0         0       0.0       0.0       1.0         0
$#     dof      type         k         d       cdf       tdf   
         6         1    5000.0       0.0       0.0       0.0
$#   flcid     hlcid        c1        c2       dle     glcid     
         0         0       0.0       0.0       1.0         0
*PART
$#                                                                         title
CONNECTION_SPOTWELD
$#     pid     secid       mid     eosid      hgid      grav    adpopt      tmid
        23         9 100000009         0         0         0         0         0
*SECTION_BEAM_TITLE
SPOTWELD_NO_RUPTURE
$#   secid    elform      shrf   qr/irid       cst     scoor       nsm     naupd
         9         6       1.0         2         0       2.0       0.0         0
$#     vol      iner       cid        ca    offset     rrcon     srcon     trcon
  255.4278      0.02         0       0.0       0.0       0.0       0.0       0.0
*MAT_GENERAL_SPRING_DISCRETE_BEAM_TITLE
SPOTWELD_NO_RUPTURE
$#     mid        ro         -         -         -         -         -    dospot
 1000000097.83000E-6                                                           0
$#     dof      type         k         d       cdf       tdf   
         1         1     100.0       0.0       0.0       0.0
$#   flcid     hlcid        c1        c2       dle     glcid     
        10         0       0.0       0.0       1.0         0
$#     dof      type         k         d       cdf       tdf   
         2         1     500.0       0.0       0.0       0.0
$#   flcid     hlcid        c1        c2       dle     glcid     
         9         0       0.0       0.0       1.0         0
$#     dof      type         k         d       cdf       tdf   
         3         1     500.0       0.0       0.0       0.0
$#   flcid     hlcid        c1        c2       dle     glcid     
         9         0       0.0       0.0       1.0         0
$#     dof      type         k         d       cdf       tdf   
         4         1    5000.0       0.0       0.0       0.0
$#   flcid     hlcid        c1        c2       dle     glcid     
         0         0       0.0       0.0       1.0         0
$#     dof      type         k         d       cdf       tdf   
         5         1    5000.0       0.0       0.0       0.0
$#   flcid     hlcid        c1        c2       dle     glcid     
         0         0       0.0       0.0       1.0         0
$#     dof      type         k         d       cdf       tdf   
         6         1    5000.0       0.0       0.0       0.0
$#   flcid     hlcid        c1        c2       dle     glcid     
         0         0       0.0       0.0       1.0         0
*PART
$#                                                                         title
CONNECTION_SPOTWELD
$#     pid     secid       mid     eosid      hgid      grav    adpopt      tmid
        24        10 100000010         0         0         0         0         0
*SECTION_BEAM_TITLE
SPOTWELD_NO_RUPTURE
$#   secid    elform      shrf   qr/irid       cst     scoor       nsm     naupd
        10         6       1.0         2         0       2.0       0.0         0
$#     vol      iner       cid        ca    offset     rrcon     srcon     trcon
  255.4278      0.02         0       0.0       0.0       0.0       0.0       0.0
*MAT_GENERAL_SPRING_DISCRETE_BEAM_TITLE
SPOTWELD_NO_RUPTURE
$#     mid        ro         -         -         -         -         -    dospot
 1000000107.83000E-6                                                           0
$#     dof      type         k         d       cdf       tdf   
         1         1     100.0       0.0       0.0       0.0
$#   flcid     hlcid        c1        c2       dle     glcid     
        12         0       0.0       0.0       1.0         0
$#     dof      type         k         d       cdf       tdf   
         2         1     500.0       0.0       0.0       0.0
$#   flcid     hlcid        c1        c2       dle     glcid     
        11         0       0.0       0.0       1.0         0
$#     dof      type         k         d       cdf       tdf   
         3         1     500.0       0.0       0.0       0.0
$#   flcid     hlcid        c1        c2       dle     glcid     
        11         0       0.0       0.0       1.0         0
$#     dof      type         k         d       cdf       tdf   
         4         1    5000.0       0.0       0.0       0.0
$#   flcid     hlcid        c1        c2       dle     glcid     
         0         0       0.0       0.0       1.0         0
$#     dof      type         k         d       cdf       tdf   
         5         1    5000.0       0.0       0.0       0.0
$#   flcid     hlcid        c1        c2       dle     glcid     
         0         0       0.0       0.0       1.0         0
$#     dof      type         k         d       cdf       tdf   
         6         1    5000.0       0.0       0.0       0.0
$#   flcid     hlcid        c1        c2       dle     glcid     
         0         0       0.0       0.0       1.0         0
*HOURGLASS
$#    hgid       ihq        qm       ibq        q1        q2    qb/vdc        qw
         1         4      0.05         0       1.5      0.06       0.0       0.0
         3         1       0.1         1       1.5      0.06       0.0       0.0
*MAT_SIMPLIFIED_JOHNSON_COOK_TITLE
Steel_DP1000
$#     mid        ro         e        pr        vp  
         37.85000E-6     210.0       0.3       0.0
$#       a         b         n         c    psfail    sigmax    sigsat      epso
       0.5       0.5       0.5       0.0       0.0       0.0       0.0       0.0
*INITIAL_VELOCITY
$#    nsid    nsidex     boxid    irigid      icid    
        26         0         0         0         0
$#      vx        vy        vz       vxr       vyr       vzr   
      -5.0       0.0       0.0       0.0       0.0       0.0
*DEFINE_COORDINATE_NODES
$#     cid        n1        n2        n3      flag       dir   
         1      6022      6023      6710         1          
*DEFINE_CURVE_TITLE
Spotweld shear function
$#    lcid      sidr       sfa       sfo      offa      offo    dattyp     lcint
         1         0       1.0       1.0       0.0       0.0         0         0
$#                a1                  o1  
              -250.0            -25000.0
               -0.25               -25.0
                 0.0                 0.0
                0.25                25.0
               250.0             25000.0
*DEFINE_CURVE_TITLE
spotweld tensile function
$#    lcid      sidr       sfa       sfo      offa      offo    dattyp     lcint
         2         0       1.0       1.0       0.0       0.0         0         0
$#                a1                  o1  
              -250.0             -8250.0
               -0.25               -8.25
                 0.0                 0.0
                0.25                8.25
               250.0              8250.0
*DEFINE_CURVE_TITLE
Spotweld shear function
$#    lcid      sidr       sfa       sfo      offa      offo    dattyp     lcint
         3         0       1.0       1.0       0.0       0.0         0         0
$#                a1                  o1  
              -250.0            -25000.0
               -0.25               -25.0
                 0.0                 0.0
                0.25                25.0
               250.0             25000.0
*DEFINE_CURVE_TITLE
spotweld tensile function
$#    lcid      sidr       sfa       sfo      offa      offo    dattyp     lcint
         4         0       1.0       1.0       0.0       0.0         0         0
$#                a1                  o1  
              -250.0             -8250.0
               -0.25               -8.25
                 0.0                 0.0
                0.25                8.25
               250.0              8250.0
*DEFINE_CURVE_TITLE
Spotweld shear function
$#    lcid      sidr       sfa       sfo      offa      offo    dattyp     lcint
         5         0       1.0       1.0       0.0       0.0         0         0
$#                a1                  o1  
              -250.0            -32800.0
               -0.25               -32.8
                 0.0                 0.0
                0.25                32.8
               250.0             32800.0
*DEFINE_CURVE_TITLE
spotweld tensile function
$#    lcid      sidr       sfa       sfo      offa      offo    dattyp     lcint
         6         0       1.0       1.0       0.0       0.0         0         0
$#                a1                  o1  
              -250.0            -10824.0
               -0.25             -10.824
                 0.0                 0.0
                0.25              10.824
               250.0             10824.0
*DEFINE_CURVE_TITLE
Spotweld shear function
$#    lcid      sidr       sfa       sfo      offa      offo    dattyp     lcint
         7         0       1.0       1.0       0.0       0.0         0         0
$#                a1                  o1  
              -250.0            -25000.0
               -0.25               -25.0
                 0.0                 0.0
                0.25                25.0
               250.0             25000.0
*DEFINE_CURVE_TITLE
spotweld tensile function
$#    lcid      sidr       sfa       sfo      offa      offo    dattyp     lcint
         8         0       1.0       1.0       0.0       0.0         0         0
$#                a1                  o1  
              -250.0             -8250.0
               -0.25               -8.25
                 0.0                 0.0
                0.25                8.25
               250.0              8250.0
*DEFINE_CURVE_TITLE
Spotweld shear function
$#    lcid      sidr       sfa       sfo      offa      offo    dattyp     lcint
         9         0       1.0       1.0       0.0       0.0         0         0
$#                a1                  o1  
              -250.0            -25000.0
               -0.25               -25.0
                 0.0                 0.0
                0.25                25.0
               250.0             25000.0
*DEFINE_CURVE_TITLE
spotweld tensile function
$#    lcid      sidr       sfa       sfo      offa      offo    dattyp     lcint
        10         0       1.0       1.0       0.0       0.0         0         0
$#                a1                  o1  
              -250.0             -8250.0
               -0.25               -8.25
                 0.0                 0.0
                0.25                8.25
               250.0              8250.0
*DEFINE_CURVE_TITLE
Spotweld shear function
$#    lcid      sidr       sfa       sfo      offa      offo    dattyp     lcint
        11         0       1.0       1.0       0.0       0.0         0         0
$#                a1                  o1  
              -250.0            -32800.0
               -0.25               -32.8
                 0.0                 0.0
                0.25                32.8
               250.0             32800.0
*DEFINE_CURVE_TITLE
spotweld tensile function
$#    lcid      sidr       sfa       sfo      offa      offo    dattyp     lcint
        12         0       1.0       1.0       0.0       0.0         0         0
$#                a1                  o1  
              -250.0            -10824.0
               -0.25             -10.824
                 0.0                 0.0
                0.25              10.824
               250.0             10824.0
*DEFINE_CURVE_TITLE
New FUNCT 13
$#    lcid      sidr       sfa       sfo      offa      offo    dattyp     lcint
        13         0       1.0       1.0       0.0       0.0         0         0
$#                a1                  o1  
                 0.0             0.00981
               100.0             0.00981
*CONSTRAINED_NODAL_RIGID_BODY_INERTIA_TITLE
Body_in_White
$#     pid       cid      nsid     pnode      iprt    drflag    rrflag      
         1         0        19     14153         0         0         0
$#      xc        yc        zc        tm      ircs    nodeid      
       0.0       0.0       0.0     500.0         0     14153
$#     ixx       ixy       ixz       iyy       iyz       izz   
      50.0      50.0      50.0      50.0      50.0      50.0
$#     vtx       vty       vtz       vrx       vry       vrz   
       0.0       0.0       0.0       0.0       0.0       0.0
*SET_NODE_LIST_TITLE
RBODY_group_19_of_NODE
$#     sid       da1       da2       da3       da4    solver       its         -
        19       0.0       0.0       0.0       0.0                              
$#    nid1      nid2      nid3      nid4      nid5      nid6      nid7      nid8
      5891      5939      5940      5941      5942      5943      5944      5945
      5946      6102      6103      6104      6105      6106      6107      6108
      6109      6110      6111      6112      6113      6313      6314      6315
      6316      6317      6318      6319      6320      6517      6518      6519
      6520      6521      6522      6523      6644      6645      6646      6647
      6648      6649      6650      6651      6652      6653      6654      6655
      6894      6895      6896      6897      6898      6899     12852     12900
     12901     12902     12903     12904     12905     12906     12907     13063
     13064     13065     13066     13067     13068     13069     13070     13071
     13072     13073     13074     13274     13275     13276     13277     13278
     13279     13280     13281     13478     13479     13480     13481     13482
     13483     13484     13605     13606     13607     13608     13609     13610
     13611     13612     13613     13614     13615     13616     13855     13856
     13857     13858     13859     13860         0         0         0         0
*RIGIDWALL_GEOMETRIC_CYLINDER_ID
$#      id                                                                 title
         1                                                                      
$#    nsid    nsidex     boxid     birth     death     
         0         0         0     200.0       0.0
$#      xt        yt        zt        xh        yh        zh      fric    
    -170.0       0.0       0.0    -170.0       0.0       1.0       0.2
$#  radcyl    lencyl     nsegs     
     254.0       0.0         0
*ELEMENT_SHELL
$#   eid     pid      n1      n2      n3      n4      n5      n6      n7      n8
       1       9     353     355     357     352       0       0       0       0
       2       9     352     357     348     349       0       0       0       0
       3       9     355     356     358     357       0       0       0       0
       4       9     357     358     347     348       0       0       0       0
       5       9     356     341     342     358       0       0       0       0
       6       9     358     342     343     347       0       0       0       0
       7       9     331     332     359     354       0       0       0       0
       8       9     354     359     355     353       0       0       0       0
       9       9     332     333     360     359       0       0       0       0
      10       9     359     360     356     355       0       0       0       0
      11       9     333     334     340     360       0       0       0       0
      12       9     360     340     341     356       0       0       0       0
      13       9     319     361     363     318       0       0       0       0
      14       9     318     363     351     317       0       0       0       0
      15       9     361     362     364     363       0       0       0       0
      16       9     363     364     350     351       0       0       0       0
      17       9     362     353     352     364       0       0       0       0
      18       9     364     352     349     350       0       0       0       0
      19       9     321     329     365     320       0       0       0       0
      20       9     320     365     361     319       0       0       0       0
$ ... 13606 like lines cut
*ELEMENT_BEAM
$#   eid     pid      n1      n2      n3     rt1     rr1     rt2     rr2   local
     154      24   14304   14305       0       0       0       0       0       0
     155      24   14306   14307       0       0       0       0       0       0
     156      24   14308   14309       0       0       0       0       0       0
     157      24   14310   14311       0       0       0       0       0       0
     158      24   14312   14313       0       0       0       0       0       0
     159      24   14314   14315       0       0       0       0       0       0
     160      24   14316   14317       0       0       0       0       0       0
     161      24   14318   14319       0       0       0       0       0       0
     162      24   14320   14321       0       0       0       0       0       0
     163      24   14322   14323       0       0       0       0       0       0
     164      24   14324   14325       0       0       0       0       0       0
     165      24   14326   14327       0       0       0       0       0       0
     166      24   14328   14329       0       0       0       0       0       0
     167      24   14330   14331       0       0       0       0       0       0
     168      24   14332   14333       0       0       0       0       0       0
     169      24   14334   14335       0       0       0       0       0       0
     170      24   14336   14337       0       0       0       0       0       0
     171      24   14338   14339       0       0       0       0       0       0
     172      24   14340   14341       0       0       0       0       0       0
     173      24   14342   14343       0       0       0       0       0       0
$ ... 58 like lines cut
*NODE
$#   nid               x               y               z      tc      rc  
      48           -40.0   -3.155446e-30            75.0       0       0
      49       -39.97753       -9.978983            75.0       0       0
      50       -39.92653       -19.95748            75.0       0       0
      51       -39.84727       -29.93546            75.0       0       0
      52       -39.74003        -39.9129            75.0       0       0
      53       -39.60509       -49.88976            75.0       0       0
      54       -39.44271       -59.86602            75.0       0       0
      55       -39.25318       -69.84164            75.0       0       0
      56       -39.03677        -79.8166            75.0       0       0
      57       -38.79376       -89.79086            75.0       0       0
      58       -38.52443        -99.7644            75.0       0       0
      59       -38.22905       -109.7372            75.0       0       0
      60       -37.90791       -119.7092            75.0       0       0
      61       -37.56128       -129.6804            75.0       0       0
      62       -37.18945       -139.6507            75.0       0       0
      63       -36.79269       -149.6202            75.0       0       0
      64       -36.37128       -159.5887            75.0       0       0
      65       -35.92551       -169.5564            75.0       0       0
      66       -35.45566        -179.523            75.0       0       0
      67       -34.96201       -189.4887            75.0       0       0
$ ... 13812 like lines cut
*SET_PART_TREE
$#    brid    
        11
$#                                                                       heading
Bumper_Beam_LHS
$#   compi     compi     compi     compi     compi     compi     compi     compi
        -6        -7        -8        -9       -10         0         0         0
*SET_PART_TREE
$#    brid    
        12
$#                                                                       heading
Crash_Box_LHS
$#   compi     compi     compi     compi     compi     compi     compi     compi
        -4        -5         0         0         0         0         0         0
*SET_PART_TREE
$#    brid    
        14
$#                                                                       heading
Bumper_Beam_LHS
$#   compi     compi     compi     compi     compi     compi     compi     compi
       -17       -18       -19       -20       -21         0         0         0
*SET_PART_TREE
$#    brid    
        15
$#                                                                       heading
Crash_Box_LHS
$#   compi     compi     compi     compi     compi     compi     compi     compi
       -15       -16         0         0         0         0         0         0
*SET_PART_TREE
$#    brid    
        25
$#                                                                       heading
Duplicated parts
$#   compi     compi     compi     compi     compi     compi     compi     compi
        14        15         0         0         0         0         0         0
*SET_NODE_GENERAL_TITLE
GRAV_group_23_of_PART
$#     sid       da1       da2       da3       da4    solver       its         -
        21       0.0       0.0       0.0       0.0                              
$#  option        e1        e2        e3        e4        e5        e6        e7
PART               4         5         6         7         8         9        10
PART              15        16        17        18        19        20        21
*SET_NODE_LIST_TITLE
GRAV_group_22_of_NODE
$#     sid       da1       da2       da3       da4    solver       its         -
        22       0.0       0.0       0.0       0.0                              
$#    nid1      nid2      nid3      nid4      nid5      nid6      nid7      nid8
     14153         0         0         0         0         0         0         0
*SET_NODE_ADD_TITLE
GRAV_group_21_of_GRNOD
$#     sid       da1       da2       da3       da4    solver      
        23       0.0       0.0       0.0       0.0          
$#   nsid1     nsid2     nsid3     nsid4     nsid5     nsid6     nsid7     nsid8
        22        21         0         0         0         0         0         0
*SET_NODE_GENERAL_TITLE
INIVEL_group_26_of_PART
$#     sid       da1       da2       da3       da4    solver       its         -
        24       0.0       0.0       0.0       0.0                              
$#  option        e1        e2        e3        e4        e5        e6        e7
PART               4         5         6         7         8         9        10
PART              15        16        17        18        19        20        21
*SET_NODE_LIST_TITLE
INIVEL_group_25_of_NODE
$#     sid       da1       da2       da3       da4    solver       its         -
        25       0.0       0.0       0.0       0.0                              
$#    nid1      nid2      nid3      nid4      nid5      nid6      nid7      nid8
     14153                   0         0         0                   0         0
*SET_NODE_ADD_TITLE
INIVEL_group_24_of_GRNOD
$#     sid       da1       da2       da3       da4    solver      
        26       0.0       0.0       0.0       0.0          
$#   nsid1     nsid2     nsid3     nsid4     nsid5     nsid6     nsid7     nsid8
        25        24         0         0         0         0         0         0
*SET_NODE_LIST_TITLE
SECTION
$#     sid       da1       da2       da3       da4    solver       its         -
        28       0.0       0.0       0.0       0.0                              
$#    nid1      nid2      nid3      nid4      nid5      nid6      nid7      nid8
      5895      5935      6055      6062      6064      6066      6074      6076
      6078      6097      6136      6166      6173      6174      6181      6182
      6210      6219      6220      6227      6228      6345      6357      6358
      6359      6360      6361      6362      6363      6513      6527      6559
      6565      6566      6573      6574      6660      6702      6735      6742
      6744      6752      6754      6782      6789      6790      6797      6798
      6904      6932      6933      6934      6935      6936         0         0
*SET_SHELL_LIST_TITLE
SECTION
$#     sid       da1       da2       da3       da4   
        27       0.0       0.0       0.0       0.0
$#    eid1      eid2      eid3      eid4      eid5      eid6      eid7      eid8
      5819      5820      5825      5826      5839      5840      5845      5846
      5888      5890      5891      5903      5905      5906      5949      5951
      5952      5964      5966      5967      6127      6128      6133      6134
      6151      6152      6157      6158      6252      6255      6256      6267
      6270      6271      6410      6413      6414      6428      6431      6432
      6474      6476      6477      6489      6491      6492      6651      6654
      6655      6669      6672      6673         0         0         0         0
*SET_SHELL_LIST_TITLE
SECTION
$#     sid       da1       da2       da3       da4   
        29       0.0       0.0       0.0       0.0
$#    eid1      eid2      eid3      eid4      eid5      eid6      eid7      eid8
      5773      5774      5777      5778      5793      5794      5797      5798
      5852      5855      5856      5867      5870      5871      5910      5913
      5914      5925      5928      5929      6129      6130      6135      6136
      6153      6154      6159      6160      6290      6292      6293      6305
      6307      6308      6372      6375      6376      6387      6390      6391
      6447      6448      6449      6456      6457      6458      6652      6657
      6659      6670      6675      6677         0         0         0         0
*END
