*KEYWORD
$------------------------------------------------------------------------------
$- This model has been developed under a contract with the Federal Highway
$- Administration (FHWA) by a Team which is now at the Center for Collision
$- Safety and Analysis at the George Mason University (GMU).
$-
$- The FE model is based on a 2010 TOYOTA YARIS and has been validated
$- for available impact test configurations.
$-
$- The model is continuously updated to improve its capabilities in
$- predicting responses in various impact scenarios.  However, the user must
$- verify his own results.  Neither CCSA, GMU, FHWA or NHTSA assume any
$- responsibility for the validity, accuracy, or applicability of any results
$- obtained from this model.
$-
$- We ask that the CCSA at GMU and the FHWA be acknowledged for any use of 
$- this FE model resulting in papers and publications. 
$-
$- Please feel free to contact us with any suggestions, comments, or
$- questions.
$-
$-     Dhafer Marzougui        <dmarzoug@gmu.edu>       (703) 993-4680
$-     Fadi Tahan                 <tahan@gmu.edu>       (703) 993-4633
$-     Steve Kan                  <cdkan@gmu.edu>       (703) 993-5896
$------------------------------------------------------------------------------
$- Model units:  tons,mm,N,sec
$------------------------------------------------------------------------------
$- version 1l, 1100 kg
$------------------------------------------------------------------------------
*TITLE
$#                                                                         title
TOYOTA YARIS COARSE MODEL (CCSA V01)
$------------------------------------------------------------------------------
$$ This file contains added masses, initial velocity, contact part sets, 
$$ instrumentation etc.,
$*******************************************************************************
$ Added Masses (Dummies and Rear Payload)
$*******************************************************************************
*PARAMETER_EXPRESSION
$    prmr1      Expresion1 
R M1_1    &DUM_1*.035+1e-3
R M1_2    &DUM_1*.010+1e-5
R M2_1    &DUM_2*.035+1e-3
R M2_2    &DUM_2*.010+1e-5
*ELEMENT_MASS
$#   eid     nid            mass     pid
$ Front Left
 5001001 5001828&M1_1
 5001002 2154042&M1_2
 5001003 2153976&M1_2
 5001004 2154059&M1_2
 5001005 2153984&M1_2
$ Front Right
 5001006 5001829&M2_1
 5001007 2356776&M2_2
 5001008 2153309&M2_2
 5001009 2359924&M2_2
 5001010 2359956&M2_2
*ELEMENT_MASS_PART
$ Rear Payload
 2000317       0.0110010 
 2000353       0.0110010 
 2000230       0.0110010 
 2000232       0.0110010 
$*******************************************************************************
$ Added Masses (Missing Parts)
$*******************************************************************************
$ Trunk (gas, spare tire, etc.)
 2000256       0.0100010
 2000912       0.0300010
$ Front under the hood (fluids, wires, etc.)
 2000166       0.0115010
 2000168       0.0115010
 2000164       0.0115010
 2000163       0.0115010
$ Floor (carpets, etc.)
 2000239       0.0100001
 2000198       0.0080001
 2000203       0.0080001
$ Cabin side (seatbelts, airbags, etc.)
 2000173       0.0120001
 2000319       0.0120001
$ Roof  (missing components)
 2000103       0.0160001
$ Dash  (missing components)
 2000403       0.0175001
$ Front seats  (foams and springs)
 2000925       0.0017000
 2000926       0.0017000
 2000927       0.0020000
 2000928       0.0020000
$ Rear seats  (foams and springs)
 2000929       0.0027000
 2000930       0.0013600
 2000931       0.0011500
$ Front doors  (foams)
 2000320       0.0009200
 2000346       0.0009200
$ Rear doors  (foams)
 2000324       0.0002700
 2000351       0.0002700
$*******************************************************************************
$ Part Set for Contact Interior (Foam and Rubber Solids)
$*******************************************************************************
*SET_PART_LIST_TITLE
solids interior contact
$#     sid       da1       da2       da3       da4
   5000001                 0.2
$#    pid1      pid2      pid3      pid4      pid5      pid6      pid7      pid8
   2000017   2000046   2000063   2000393   2000477   2000478   2000479   2000480
   2000481   2000482   2000483   2000484   2000509   2000521
$*******************************************************************************
$ Part Set for Vehicle Contact
$*******************************************************************************
*SET_PART_LIST_TITLE
all vehicle contact
$#     sid       da1       da2       da3       da4
   5000002
$#    pid1      pid2      pid3      pid4      pid5      pid6      pid7      pid8
   2000001   2000002   2000003   2000004   2000005   2000007   2000008   2000009
   2000010   2000011   2000012   2000013   2000014   2000015   2000016   2000017
   2000018   2000019   2000020   2000021   2000022   2000024   2000025   2000026
   2000028   2000029   2000030   2000031   2000032   2000033   2000035   2000036
   2000037   2000038   2000039   2000040   2000041   2000042   2000043   2000044
   2000045   2000047   2000048   2000049   2000050   2000051   2000052   2000053
   2000054   2000055   2000056   2000057   2000058   2000059   2000060   2000061
   2000062   2000063   2000064   2000065   2000067   2000068   2000069   2000070
   2000071   2000072   2000073   2000074   2000075   2000076   2000078
   2000079   2000080   2000081   2000082   2000083   2000084   2000085   2000086
   2000087   2000088   2000089   2000090   2000091   2000092   2000093   2000094
   2000095   2000096   2000097   2000098   2000099   2000100   2000101   2000102
   2000103   2000104   2000105   2000106   2000107   2000108   2000109   2000110
   2000111   2000112   2000113   2000114   2000115   2000116   2000117   2000118
   2000119   2000120   2000121   2000122   2000123   2000124   2000125   2000126
   2000127   2000128   2000129   2000130   2000131   2000132   2000133   2000134
   2000135   2000136   2000137   2000138   2000139   2000140   2000141   2000142
   2000143   2000144   2000145   2000146   2000147   2000148   2000149   2000150
   2000151   2000152   2000153   2000154   2000155   2000156   2000157   2000158
   2000159   2000160   2000161   2000162   2000163   2000164   2000165   2000166
$ ... 88 like lines cut
$   2000510   2000511   2000077   2000376
$*******************************************************************************
$ Initial Velocity
$*******************************************************************************
*INITIAL_VELOCITY_GENERATION
$#nsid/pid      styp     omega        vx        vy        vz
   5000004         1     0.000&VEL_1     0.0000000 0.0000000
$#      xc        yc        zc        nx        ny        nz     phase
     0.000     0.000     0.000 0.0000000 1.0000000 0.0000000
$#nsid/pid      styp     omega        vx        vy        vz
   5000005         1&OMEG1    &VEL_1     0.0000000 0.0000000
$#      xc        yc        zc        nx        ny        nz     phase
   -777.06 0.0000000   303.154 0.0000000 1.0000000 0.0000000
$#nsid/pid      styp     omega        vx        vy        vz
   5000006         1&OMEG1    &VEL_1     0.0000000 0.0000000
$#      xc        yc        zc        nx        ny        nz     phase
  -3315.69 0.0000000   303.236 0.0000000 1.0000000 0.0000000
$#nsid/pid      styp     omega        vx        vy        vz
   5000007         3     0.000&VEL_1     0.0000000 0.0000000
$#      xc        yc        zc        nx        ny        nz     phase
     0.000     0.000     0.000     0.000 1.0000000 0.0000000
$------------------------------------------------------------------------------
*SET_PART_LIST_TITLE
initial velocity: non rotating parts
$#     sid       da1       da2       da3       da4
   5000004
$#    pid1      pid2      pid3      pid4      pid5      pid6      pid7      pid8
   2000001   2000002   2000003   2000004   2000005   2000006   2000007   2000008
   2000009   2000010   2000011   2000012   2000013   2000014   2000015   2000016
   2000017   2000018   2000019   2000020   2000021   2000022   2000023   2000024
   2000025   2000026   2000027   2000028   2000029   2000030   2000031   2000032
   2000033   2000034   2000035   2000036   2000037   2000038   2000039   2000040
   2000041   2000042   2000044   2000045   2000046   2000047   2000048   2000049
   2000050   2000051   2000052   2000053   2000054   2000055   2000056   2000057
   2000058   2000059   2000060   2000061   2000062   2000063   2000064   2000065
   2000066   2000067   2000068   2000069   2000070   2000072   2000073   2000074
   2000075   2000076   2000077   2000078   2000079   2000080   2000081   2000082
   2000083   2000084   2000085   2000086   2000087   2000088   2000089   2000090
   2000091   2000092   2000093   2000094   2000095   2000096   2000097   2000098
   2000099   2000100   2000101   2000102   2000103   2000104   2000105   2000106
   2000107   2000108   2000109   2000110   2000111   2000112   2000113   2000114
   2000115   2000116   2000117   2000118   2000119   2000120   2000121   2000122
   2000123   2000124   2000125   2000126   2000127   2000128   2000129   2000130
   2000131   2000132   2000133   2000134   2000135   2000136   2000137   2000138
   2000139   2000140   2000141   2000142   2000143   2000144   2000145   2000146
   2000147   2000148   2000149   2000150   2000151   2000152   2000153   2000154
   2000155   2000156   2000157   2000158   2000159   2000160   2000161   2000162
$ ... 93 like lines cut
*SET_PART_LIST_TITLE
initial velocity: front rotating parts
$#     sid       da1       da2       da3       da4
   5000005
$#    pid1      pid2      pid3      pid4      pid5      pid6      pid7      pid8
   2000043   2000210   2000211   2000212   2000366   2000367   2000368   2000398
   2000487   2000490 
*SET_PART_LIST_TITLE
initial velocity: rear rotating parts
$#     sid       da1       da2       da3       da4
   5000006
$#    pid1      pid2      pid3      pid4      pid5      pid6      pid7      pid8
   2000071   2000360   2000361   2000362   2000363   2000364   2000365   2000370 
   2000396   2000410   2000488   2000489
*SET_NODE_LIST_TITLE
initial velocity: mass nodes
$#     sid       da1       da2       da3       da4
   5000007
$#    nid1      nid2      nid3      nid4      nid5      nid6      nid7      nid8
   2000001   2346432   2346433   2346434   2346435   2346436   2346437   2346438
   2346439   2346440   2346441   2346442   2346443   2346444   2346445   2346446
   2346447   2346448   2346449   2346450   2346451   2346452   2346453   2346454
   2346455   2346456   2346457   2346458   2346459   2346702   2346703   2346704
   2346705   2346706   2346707   2346708   2346709   2346710   2346711   2346712
   2346713   2346714   2346715   2346716   2346717   2346718   2346719   2346720
   2346721   2346722   2346723   2346724   2346725   2346726   2346727   2346728
   2346729   2346730   2346731   2346732   2346733   2346734   2346735   2348729
   2348765   2348766   2348802   2406517   2406518   2406519   2406520   2406521
   2406522   2406523   2406524   2406525   2406526   2406527   2406528   2406529
   2406530   2406531   2406532   2406533   2406534   2406535   2406536   2406537
   2406538   2406539   2406540   2406541   2406542   2406543   2406544   2406545
   2406546   2406547   2406548   2406549   2406550   2406551   2406552   2406553
   2406554   2406555   2406556   2406557   2406558   2406559   2406560   2406562
   2406563   2406564   2406565   2406566   2406567   2406568   2406569   2406570
   2406571   2406572   2406573   2406574   2406575   2406576   2406577   2406578
   2406579   2406580   2406581   2406582   2406583   2406584   2406585   2406586
   2406587   2406588   2406589   2406590   2406591   2406592   2406593   2406594
   2406595   2411578   2411579   2411580   2411581   2411582   2411583   2411584
   2411585   2416267   2416473   5001828   5001829                                            
$*******************************************************************************
$ Part Set for Tires (ground contact)
$*******************************************************************************
$ Front Left
*SET_NODE_GENERAL
   5000008
$# option         e1        e2        e3        e4        e5        e6        e7
PART         2000211   2000487
$ Front Right
*SET_NODE_GENERAL
   5000009
$# option         e1        e2        e3        e4        e5        e6        e7
PART         2000367   2000490
$ Rear Left
*SET_NODE_GENERAL
   5000010
$# option         e1        e2        e3        e4        e5        e6        e7
PART         2000360   2000488
$ Rear Reight
*SET_NODE_GENERAL
   5000011
$# option         e1        e2        e3        e4        e5        e6        e7
PART         2000363   2000489
$*******************************************************************************
$ Instrumentation
$*******************************************************************************
$-------------------------------------------------------------------------------
$ Output Nodes
$-------------------------------------------------------------------------------
*DATABASE_HISTORY_NODE_ID
$#      ID                                                               HEADING
   5000390Left Rear Seat
   5000398Right Rear Seat
   5000406C.G.
   5000404C.G. Global
   5000414Engine Top
   5000422Engine Bottom
   5000514Driver Seat Crossmember
   5000521Passenger Seat Crossmember
   5000513Driver Seat Crossmember Global
   5000534Driver Seat Front
   5000541Passenger Seat Front
   5000554Left B-pillar Lower
   5000564Left B-pillar Middle
$-------------------------------------------------------------------------------
$ Accelerometers
$-------------------------------------------------------------------------------
*PART
$# title
ACCELEROMETER                                                                   
$#     pid     secid       mid     eosid      hgid      grav    adpopt      tmid
   5000001   5000001   5000001
*SECTION_SOLID
$#   secid    elform       aet
   5000001
*MAT_ELASTIC
$#     mid        ro         e        pr        da        db  not used
   5000001 7.8900E-9 2.1000E+5  0.300000
$-------------------------------------------------------------------------------
*CONSTRAINED_NODAL_RIGID_BODY
$#     pid       cid      nsid     pnode      iprt    drflag    rrflag
   5000565             5000584
*SET_NODE_LIST
$#     sid       da1       da2       da3       da4    solver
   5000584
$#    nid1      nid2      nid3      nid4      nid5      nid6      nid7      nid8
   5000383   5000384   5000385   5000386   5000387   5000388   5000389   5000390
   2139631   2224820   2224821   2224822   2224825   2224826   2224832   2224833
   2224840   2224841   2224842
*CONSTRAINED_NODAL_RIGID_BODY
$#     pid       cid      nsid     pnode      iprt    drflag    rrflag
   5000566             5000585
*SET_NODE_LIST
$#     sid       da1       da2       da3       da4    solver
   5000585
$#    nid1      nid2      nid3      nid4      nid5      nid6      nid7      nid8
   5000394   5000396   5000393   5000397   5000392   5000398   5000391   5000395   
   2139908   2139923   2223366   2224201   2224210   2224211   2224216   2224217
*CONSTRAINED_NODAL_RIGID_BODY
$#     pid       cid      nsid     pnode      iprt    drflag    rrflag
   5000567             5000586
*SET_NODE_LIST
$#     sid       da1       da2       da3       da4    solver
   5000586
$#    nid1      nid2      nid3      nid4      nid5      nid6      nid7      nid8
   5000411   5000414   5000413   5000412   5000407   5000408   5000409   5000410
   2340360   2340495   2340666   2340512   2340485   2340467
*CONSTRAINED_NODAL_RIGID_BODY
$#     pid       cid      nsid     pnode      iprt    drflag    rrflag
   5000568             5000587
*SET_NODE_LIST
$#     sid       da1       da2       da3       da4    solver
   5000587
$#    nid1      nid2      nid3      nid4      nid5      nid6      nid7      nid8
   5000419   5000422   5000421   5000420   5000415   5000416   5000417   5000418
   2338208   2338206   2338204   2338209   2338207   2338205   2338278   2338277
   2338276
*CONSTRAINED_NODAL_RIGID_BODY
$#     pid       cid      nsid     pnode      iprt    drflag    rrflag
   5000569             5000588
*SET_NODE_LIST
$#     sid       da1       da2       da3       da4    solver
   5000588
$#    nid1      nid2      nid3      nid4      nid5      nid6      nid7      nid8
   2205190   2205191   2205206   2205207   2205208   2205234   2205236   2205235
   2205238   2205239   2205188   2205189   2205205   2205231   2205232   2205233
   2205230   2205237   5000401   5000402   5000403   5000404   5000405   5000406
   5000399   5000400   
*CONSTRAINED_NODAL_RIGID_BODY
$#     pid       cid      nsid     pnode      iprt    drflag    rrflag
   5000571             5000589
*SET_NODE_LIST
$#     sid       da1       da2       da3       da4    solver
   5000589
$#    nid1      nid2      nid3      nid4      nid5      nid6      nid7      nid8
   5000511   5000514   5000513   5000512   5000515   5000518   5000517   5000516
   2136225   2136229   2194298   2194339   2194340   2194342   2194343   2194347
   2194348   2194349   2194360   2194361   2194362   2194363   2194364   2194372
*CONSTRAINED_NODAL_RIGID_BODY
$#     pid       cid      nsid     pnode      iprt    drflag    rrflag
   5000572             5000590
*SET_NODE_LIST
$#     sid       da1       da2       da3       da4    solver
   5000590
$#    nid1      nid2      nid3      nid4      nid5      nid6      nid7      nid8
   5000521   5000522   5000523   5000524   5000525   5000526   5000527   5000528
   2136393   2195591   2136375   2195590   2195600   2136369   2136412   2136373
   2195536   2136416   2195530   2195537   2195538   2195539   2195531   2195532
*CONSTRAINED_NODAL_RIGID_BODY
$#     pid       cid      nsid     pnode      iprt    drflag    rrflag
   5000573             5000591
*SET_NODE_LIST
$#     sid       da1       da2       da3       da4    solver
   5000591
$#    nid1      nid2      nid3      nid4      nid5      nid6      nid7      nid8
   5000531   5000534   5000533   5000532   5000535   5000538   5000537   5000536
   2195139   2173498   2135600   2135598   2173491   2195144   2195143   2195141
   2195138   2173499   2195142   2195140   
*CONSTRAINED_NODAL_RIGID_BODY
$#     pid       cid      nsid     pnode      iprt    drflag    rrflag
   5000574             5000592
*SET_NODE_LIST
$#     sid       da1       da2       da3       da4    solver
   5000592
$#    nid1      nid2      nid3      nid4      nid5      nid6      nid7      nid8
   5000541   5000542   5000543   5000544   5000545   5000546   5000547   5000548
   2135823   2135822   2194618   2194632   2194622   2194615   2194619   2194633
   2194657   2194620   2194621   2194634   2194682   2172558   2194680   2194658
*CONSTRAINED_NODAL_RIGID_BODY
$#     pid       cid      nsid     pnode      iprt    drflag    rrflag
   5000575             5000593
*SET_NODE_LIST
$#     sid       da1       da2       da3       da4    solver
   5000593
$#    nid1      nid2      nid3      nid4      nid5      nid6      nid7      nid8
   5000551   5000554   5000553   5000552   5000555   5000558   5000557   5000556
   2197172   2197173   2197174   2197177   2197182   2197183   2197215   2197216
   2197217   2197218   2197219   2197222   2197224   2197225   2197243   2197250
*CONSTRAINED_NODAL_RIGID_BODY
$#     pid       cid      nsid     pnode      iprt    drflag    rrflag
   5000576         0   5000594
*SET_NODE_LIST
$#     sid       da1       da2       da3       da4
   5000594
$#    nid1      nid2      nid3      nid4      nid5      nid6      nid7      nid8
   5000561   5000564   5000563   5000562   5000565   5000568   5000567   5000566
   2128773   2128774   2128812   2128813   2197347   2197348   2197386   2197387
   2197403   2197404   2197405   2197437 
$-------------------------------------------------------------------------------
$$ ACCELEROMETER DEFINITION
$-------------------------------------------------------------------------------
*ELEMENT_SOLID
$#   eid     pid      n1      n2      n3      n4      n5      n6      n7      n8
 5000013 5000001 5000387 5000390 5000389 5000388 5000383 5000384 5000385 5000386
 5000014 5000001 5000395 5000398 5000397 5000396 5000391 5000392 5000393 5000394
 5000015 5000001 5000403 5000406 5000405 5000404 5000399 5000400 5000401 5000402
 5000016 5000001 5000411 5000414 5000413 5000412 5000407 5000408 5000409 5000410
 5000017 5000001 5000419 5000422 5000421 5000420 5000415 5000416 5000417 5000418
 5000018 5000001 5000511 5000514 5000513 5000512 5000515 5000518 5000517 5000516
 5000019 5000001 5000521 5000522 5000523 5000524 5000525 5000526 5000527 5000528
 5000020 5000001 5000531 5000534 5000533 5000532 5000535 5000538 5000537 5000536
 5000021 5000001 5000541 5000542 5000543 5000544 5000545 5000546 5000547 5000548
 5000022 5000001 5000551 5000554 5000553 5000552 5000555 5000558 5000557 5000556
 5000023 5000001 5000561 5000564 5000563 5000562 5000565 5000568 5000567 5000566
*ELEMENT_SEATBELT_ACCELEROMETER
$#  sbacid      nid1      nid2      nid3     igrav    intopt
   5000001   5000390   5000389   5000387
   5000002   5000398   5000397   5000395
   5000003   5000406   5000405   5000403
   5000004   5000414   5000413   5000411
   5000005   5000422   5000421   5000419
   5000006   5000514   5000513   5000511
   5000007   5000521   5000522   5000524
   5000008   5000534   5000533   5000531
   5000009   5000541   5000542   5000544
   5000010   5000554   5000553   5000551
   5000011   5000564   5000563   5000561
*NODE
$#   nid               x               y               z      tc      rc
 5000383   -2937.9982910     499.0000000     470.0000000
 5000384   -2937.9982910     469.0000000     470.0000000
 5000385   -2907.9982910     469.0000000     470.0000000
 5000386   -2907.9982910     499.0000000     470.0000000
 5000387   -2937.9982910     499.0000000     440.0000000
 5000388   -2907.9982910     499.0000000     440.0000000
 5000389   -2907.9982910     469.0000000     440.0000000
 5000390   -2937.9982910     469.0000000     440.0000000
 5000391   -2937.9982910    -469.0000000     470.0000000
 5000392   -2937.9982910    -499.0000000     470.0000000
 5000393   -2907.9982910    -499.0000000     470.0000000
 5000394   -2907.9982910    -469.0000000     470.0000000
 5000395   -2937.9982910    -469.0000000     440.0000000
 5000396   -2907.9982910    -469.0000000     440.0000000
 5000397   -2907.9982910    -499.0000000     440.0000000
 5000398   -2937.9982910    -499.0000000     440.0000000
 5000399   -1836.0583496      19.0077705     360.6530151
 5000400   -1836.0583496     -10.9922295     360.6530151
 5000401   -1806.0583496     -10.9922295     360.6530151
 5000402   -1806.0583496      19.0077705     360.6530151
$ ... 68 like lines cut
$*******************************************************************************
$ Intrusion Ouput
$*******************************************************************************
$---------------Local coordinate system frontal -----------------------------
*DEFINE_COORDINATE_NODES
$#     cid        n1        n2        n3
   5100001   5000518   5000517   5000515
*DATABASE_HISTORY_NODE_SET_LOCAL
$#      id       cid       ref
   5100001   5100001         2
*SET_NODE_LIST
$#     sid       da1       da2       da3       da4
   5100001
$-----------------------------IIHS Intrusion----------------------
   2427595   2427791   2427935   2428045
$-------------------------Mid A-pillar   left and right-------------
   2281706   2429796 
$---------------------------Intrusion on firewall passenger---------
   2424385   2424513   2424718   2424918
   2425016   2425076   2425468   2425578
   2425643   2425713   2425799   2426011
$---------------------------Intrusion on firewall Driver ---------
   2426642   2426686   2427158   2427257   
   2427293   2427313   2427355   2427437
$---------------Local coordinate system side -------------------------------
*DEFINE_COORDINATE_NODES
$#     cid        n1        n2        n3
   5100002   5000524   5000523   5000521
*DATABASE_HISTORY_NODE_SET_LOCAL
$#      id       cid       ref
   5100002   5100002         2
*SET_NODE_LIST
$#     sid       da1       da2       da3       da4
   5100002
$-----------------------Level 1 Sill Top---------------------------------------
   2103661   2172095   2172370   2175209   2175243   2175402   2175423   2192027
   2192053   2192429   2192526   2192582   2194128
$-----------------------Level 2 H-Point-----------------------------------------
   2299265   2467417   2467429   2467442   2467455   2467474   2467485   2472485
   2472500   2472568   2472640   2473223   2475671
$----------------------Level 3 Mid door-----------------------------------------
   2299192   2470700   2472812   2472878   2472939   2473168   2474428   2474535
   2474600   2474944   2475013   2475459   2475561
$----------------------Level 4 Window Sill--------------------------------------
   2299507   2467468   2470968   2471010   2471081   2471180   2471306   2471496
   2471610   2473558   2473599   2473789   2473854   2476141 
$*******************************************************************************
$ Dummy Springs
$*******************************************************************************
*PART
$# title
_DummySprings    
$#     pid     secid       mid     eosid      hgid      grav    adpopt      tmid
   5000002   5000002   5000002
*SECTION_DISCRETE
$#   secid       dro        kd        v0        cl        fd
   5000002
$#     cdl       tdl
     0.000     0.000
*MAT_SPRING_ELASTIC
$#     mid         k
   5000002 100.00000
$-------------------------------------------------------------------------------
*ELEMENT_DISCRETE
$#   eid     pid      n1      n2     vid               s      pf          offset
 5001020 5000002 5001828 2366928
 5001021 5000002 5001828 2366918
 5001022 5000002 5001828 2366925
 5001023 5000002 5001828 2366921
 5001024 5000002 5001828 2154042
 5001025 5000002 5001828 2154059
 5001026 5000002 5001828 2153984
 5001027 5000002 5001828 2153976
 5001028 5000002 5001829 2356776
 5001029 5000002 5001829 2359924
 5001030 5000002 5001829 2359956
 5001031 5000002 5001829 2153309
 5001032 5000002 5001829 2367422
 5001033 5000002 5001829 2367411
 5001034 5000002 5001829 2367418
 5001035 5000002 5001829 2367415
$-------------------------------------------------------------------------------
*NODE
$#   nid               x               y               z      tc      rc
 5001828   -1900.0000000     324.7900391     636.3504028
 5001829   -1900.0000000    -324.7900391     636.3504028
*END
