*KEYWORD
$--------------------------------------------------------------------------------
$ Rigid Walls
$--------------------------------------------------------------------------------
*RIGIDWALL_PLANAR_FINITE_FORCES_ID
$#      id
         1
$#    nsid    nsidex     boxid    offset     birth     death     rwksf
         1         0         0
$#      xt        yt        zt        xh        yh        zh      fric      wvel
 4600.0000 1054.1000 66.824997 4599.0000 1054.1000 66.824997  0.600000
$#    xhev      yhev      zhev      lenl      lenm
 4600.0000 1053.1000 66.824997 2108.2000 1236.0000
$#    soft      ssid        n1        n2        n3        n4
         0      1001      1001
*RIGIDWALL_PLANAR_FINITE_ID
$#      id
         2
$#    nsid    nsidex     boxid    offset     birth     death     rwksf
         1         0         0
$#      xt        yt        zt        xh        yh        zh      fric      wvel
 4600.0000 1054.1000 1303.0000 4599.0000 1054.1000 1303.0000  0.600000
$#    xhev      yhev      zhev      lenl      lenm
 4600.0000 1053.1000 1303.0000 2108.2000 457.00000
*SET_NODE_GENERAL
$#     sid       da1       da2       da3       da4    solver
         1
$# option         e1        e2        e3        e4        e5        e6        e7
ALL
DPART           1001
*SET_SEGMENT
$#     sid       da1       da2       da3       da4
      1001
$#      n1        n2        n3        n4        a1        a2        a3        a4
      1007      1008      1002      1001
      1008      1009      1003      1002
      1009      1010      1004      1003
      1010      1011      1005      1004
      1011      1012      1006      1005
      1013      1014      1008      1007
      1014      1015      1009      1008
      1015      1016      1010      1009
      1016      1017      1011      1010
      1017      1018      1012      1011
      1019      1020      1014      1013
      1020      1021      1015      1014
      1021      1022      1016      1015
      1022      1023      1017      1016
      1023      1024      1018      1017
      1025      1026      1020      1019
      1026      1027      1021      1020
      1027      1028      1022      1021
      1028      1029      1023      1022
      1029      1030      1024      1023
$ ... 25 like lines cut
$--------------------------------------------------------------------------------
$ Parts, Materials, Sections
$--------------------------------------------------------------------------------
*PART
$# title
Wall
$#     pid     secid       mid     eosid      hgid      grav    adpopt      tmid
      1001      1001      1001
*SECTION_SHELL
$#   secid    elform      shrf       nip     propt   qr/irid     icomp     setyp
      1001         2  1.000000         3
$#      t1        t2        t3        t4      nloc     marea      idof    edgset
  1.000000  1.000000  1.000000  1.000000
*MAT_RIGID
$#     mid        ro         e        pr         n    couple         m     alias
      1001 7.860E-12 200000.00  0.300000     0.000     0.000     0.000          
$#     cmo      con1      con2
  1.000000         7         7
$#lco or a1       a2        a3        v1        v2        v3
     0.000     0.000     0.000     0.000     0.000     0.000
$--------------------------------------------------------------------------------
$ Elements and Nodes
$--------------------------------------------------------------------------------
*ELEMENT_SHELL
$#   eid     pid      n1      n2      n3      n4      n5      n6      n7      n8
    1001    1001    1007    1008    1002    1001
    1002    1001    1008    1009    1003    1002
    1003    1001    1009    1010    1004    1003
    1004    1001    1010    1011    1005    1004
    1005    1001    1011    1012    1006    1005
    1006    1001    1013    1014    1008    1007
    1007    1001    1014    1015    1009    1008
    1008    1001    1015    1016    1010    1009
    1009    1001    1016    1017    1011    1010
    1010    1001    1017    1018    1012    1011
    1011    1001    1019    1020    1014    1013
    1012    1001    1020    1021    1015    1014
    1013    1001    1021    1022    1016    1015
    1014    1001    1022    1023    1017    1016
    1015    1001    1023    1024    1018    1017
    1016    1001    1025    1026    1020    1019
    1017    1001    1026    1027    1021    1020
    1018    1001    1027    1028    1022    1021
    1019    1001    1028    1029    1023    1022
    1020    1001    1029    1030    1024    1023
$ ... 26 like lines cut
*NODE
$#   nid               x               y               z      tc      rc
    1001    4600.0000000   -1054.0999756     66.82499695
    1002    4600.0000000   -1054.0999756    313.85998535
    1003    4600.0000000   -1054.0999756    560.89501953
    1004    4600.0000000   -1054.0999756    807.92999268
    1005    4600.0000000   -1054.0999756    1054.9649658
    1006    4600.0000000   -1054.0999756    1302.0000000
    1007    4600.0000000   -819.85559082     66.82499695
    1008    4600.0000000   -819.89672852    313.85998535
    1009    4600.0000000   -819.93786621    560.89501953
    1010    4600.0000000   -819.97888184    807.92999268
    1011    4600.0000000   -820.02001953    1054.9650879
    1012    4600.0000000   -820.06115723    1302.0000000
    1013    4600.0000000   -585.61108398     66.82499695
    1014    4600.0000000   -585.69335938    313.85998535
    1015    4600.0000000   -585.77563477    560.89501953
    1016    4600.0000000   -585.85778809    807.93005371
    1017    4600.0000000   -585.94006348    1054.9650879
    1018    4600.0000000   -586.02221680    1302.0000000
    1019    4600.0000000   -351.36660767     66.82499695
    1020    4600.0000000   -351.48992920    313.85998535
$ ... 42 like lines cut
*END
