$ Copyright (C) 2022 Altair Engineering Inc. ("Holder")
$ Model is licensed by Holder under CC BY-NC 4.0
$ (https://creativecommons.org/licenses/by-nc/4.0/legalcode).
$$ HM_OUTPUT_DECK created 09:18:53 05-24-2022 by HyperMesh Version 2021.0.0.33
$$ Ls-dyna Input Deck Generated by HyperMesh Version  : 2021.0.0.33
$$ Generated using HyperMesh-Ls-dyna 971_R9.3 Template Version : 2021.0.0.33
*KEYWORD_ID 650000000
zug_test3_RS
$---+----1----+----2----+----3----+----4----+----5----+----6----+----7----+----8
$                    (1) TITLE CARD.
$---+----1----+----2----+----3----+----4----+----5----+----6----+----7----+----8
*TITLE
zug_test3_RS                                                  
*CONTROL_TERMINATION
$$  ENDTIM    ENDCYC     DTMIN    ENDENG    ENDMAS     NOSOL
      40.0                                                  
*CONTROL_TIMESTEP
$$  DTINIT    TSSFAC      ISDO    TSLIMT     DT2MS      LCTM     ERODE     MSIST
       0.0       0.9                                                            
$$  DT2MSF   DT2MSLC     IMSCL                         RMSCL
       0.0         0         0                              
*CONTROL_SHELL
$$  WRPANG     ESORT     IRNXX    ISTUPD    THEORY       BWC     MITER      PROJ
      40.0         0        -1         1         2         2         1          
$$ ROTASCL    INTGRD    LAMSHT    CSTYP6    THSHEL
       1.0         0         0         1          
*CONTROL_HOURGLASS
$$     IHQ        QH
         1       0.1
*CONTROL_PARALLEL
$$    NCPU    NUMRHS      ACCU      PARA
         1         0         2          
*CONTROL_OUTPUT
$$   NPOPT    NEECHO    NREFUP    IACCOP     OPIFS    IPNINT    IKEDIT    IFLUSH
         0         0         0         0       0.0         0       100      5000
$$   IPRTF    IERODE   TET10S8    MSGMAX    IPCURV      GMDT   IP1DBLT      EOCS
         0                                                                      
*CONTROL_ENERGY
$$    HGEN      RWEN    SLNTEN     RYLEN
         2         2         2          
*CONTROL_ACCURACY
$$     OSU       INN    PIDOSU      IACC
         0         2         0          
$$DATABASE_OPTION -- Control Cards for ASCII output
*DATABASE_BNDOUT
$$      DT    BINARY      LCUR     IOOPT   OPTION1   OPTION2   OPTION3   OPTION4
      0.01         2                                                            
*DATABASE_ELOUT
$$      DT    BINARY      LCUR     IOOPT   OPTION1   OPTION2   OPTION3   OPTION4
      0.01         2                                                            
*DATABASE_GLSTAT
$$      DT    BINARY      LCUR     IOOPT
      0.01         2                    
*DATABASE_NODOUT
$$      DT    BINARY      LCUR     IOOPT      DTHF     BINHF
      0.01         2                                        
*DATABASE_RBDOUT
$$      DT    BINARY      LCUR     IOOPT
      0.01         2                    
*DATABASE_SECFORC
$$      DT    BINARY      LCUR     IOOPT
      0.01         2                    
*DATABASE_BINARY_D3PLOT
$$ DT/CYCL      LCDT      BEAM     NPLTC    PSETID
       2.0                                        
         0
*DATABASE_BINARY_D3THDT
$$ DT/CYCL      LCID
       0.1          
*DATABASE_BINARY_D3DUMP
$$ DT/CYCL        NR
  250000.0          
*DATABASE_BINARY_RUNRSF
$$ DT/CYCL      LCDT/NR
  112500.0          
*DATABASE_BINARY_INTFOR
$$ DT/CYCL      LCID
       0.1          
*DATABASE_EXTENT_BINARY
$$   NEIPH     NEIPS    MAXINT    STRFLG    SIGFLG    EPSFLG    RLTFLG    ENGFLG
         0         0         3         1         1         1         2         1
$$  CMPFLG    IEVERP    BEAMIP     DCOMP      SHGE     STSSZ    N3THDT   IALEMAT
         0         1                                                            
*DATABASE_FORMAT
$$   IFORM   IBINARY
         0         1
*NODE
     851     65.73999786            15.0             0.0                
     891     43.24100113             5.0             0.0                
    2028    145.74000549            15.0             0.0                
    6991     43.24100113            25.0             0.0                
    7199    -19.25967979             0.0             0.0                
    7219    -19.25967979            30.0             0.0                
    7248     23.74865723            30.0             0.0                
    7268     23.74865723             0.0             0.0                
    7853     30.01161957            30.0             0.0                
    7873     30.01161957 1.776356800E-15             0.0                
    9306    168.23899841             5.0             0.0                
    9321     187.7313385            30.0             0.0                
    9342    181.46838379             0.0             0.0                
    9439     187.7313385             0.0             0.0                
    9444    168.23899841            25.0             0.0                
    9479    230.73968506            30.0             0.0                
    9541    230.73968506             0.0             0.0                
    9994    181.46838379            30.0             0.0                
   10607    168.23899841            10.0             0.0                
   10608    168.23899841            15.0             0.0                
$ ... 961 like lines cut
*MAT_PIECEWISE_LINEAR_PLASTICITY_TITLE
$HWCOLOR MATERIAL         1       4                                             
DP600                                                                           
         17.8000E-06     210.0       0.3       0.0       0.0       0.0          
       0.0       0.0         3                    
       0.0       0.0       0.0       0.0       0.0       0.0       0.0       0.0
       0.0       0.0       0.0       0.0       0.0       0.0       0.0       0.0
*MAT_RIGID_TITLE
$HWCOLOR MATERIAL         2       3                                             
rigid_bodies
         27.8000E-06     210.0       0.3       0.0       0.0       0.0          
       1.0         5         7
       0.0       0.0       0.0       0.0       0.0       0.0
*MAT_ELASTIC_TITLE
$HWCOLOR MATERIAL         3       5                                             
MAT_DUMMY                                                                       
         37.8000E-06     210.0       0.3                              
*PART
$HWCOLOR COMPS       1       3
Einspannung                                                                     
         1         1         2                                                  
$HWCOLOR COMPS       2       4
Einschnuerung                                                                   
         2         1         1                                                  
$HWCOLOR COMPS       3       5
Zugzone                                                                         
         3         1         1                                                  
$HWCOLOR COMPS       4       6
Zugzeite                                                                        
         4         1         2                                                  
$HWCOLOR COMPS       5       7
Einsp_def                                                                       
         5         1         1                                                  
$HWCOLOR COMPS       6       8
Zug_def                                                                         
         6         1         1                                                  
*SECTION_SHELL_TITLE
Shell                                                                           
         1         2    0.8333         3       1.0                              
       1.5       1.5       1.5       1.5                                        
*ELEMENT_SHELL
   10152       1   10930   11413   11438   11417
   10153       1   11417   11438   11410   10931
   10154       1   11438   11409   10927   11410
   10155       1   11413   10928   11409   11438
   10156       1   10931   11410   11439   11402
   10157       1   11402   11439   11401   10924
   10158       1   11439   11405   10925   11401
   10159       1   11410   10927   11405   11439
   10160       1   10914   11384   11440   11383
   10161       1   11383   11440   11386   10915
   10162       1   11440   11417   10931   11386
   10163       1   11384   10930   11417   11440
   10164       1   10915   11386   11441   11385
   10165       1   11385   11441   11388   10916
   10166       1   11441   11402   10924   11388
   10167       1   11386   10931   11402   11441
   10168       1   10899   11361   11442   11362
   10169       1   11362   11442   11415   10932
   10170       1   11442   11364   10929   11415
   10171       1   11361   10900   11364   11442
$ ... 844 like lines cut
$$
$$ Sets Defined In HyperMesh
$$
*SET_NODE_LIST
$HMSET
$HMNAME SETS       1top                                                                     
         1                                        MECH      
*SET_NODE_LIST
$HMSET
$HMNAME SETS       2bottom                                                                  
         2                                        MECH      
*BOUNDARY_PRESCRIBED_MOTION_RIGID_ID
$HMNAME LOADCOLS       1BPM_NodeLoadCol_1                                                       
$HWCOLOR LOADCOLS       1       3
         1rigid_body_fix                                                        
         1         1         0         2       1.0          1.0000E+28          
*BOUNDARY_PRESCRIBED_MOTION_RIGID_ID
$HMNAME LOADCOLS       2BPM_NodeLoadCol_2                                                       
$HWCOLOR LOADCOLS       2       4
         2rigid_body_move                                                       
         4         1         0         1       1.0          1.0000E+28          
*DATABASE_HISTORY_NODE
$HMNAME OUTPUTBLOCKS       1TimeHistory1                                                            
       851      2028
*DEFINE_CURVE_TITLE
$HWCOLOR CURVES         1       3
$HMCURVE     2    2 imposed_velocity                                                                
imposed_velocity                                                      
         1         0       1.0       1.0                              
                 0.0                 0.0
1.00000000000000E-03                 1.0
              1000.0                 1.0
*DEFINE_CURVE_TITLE
$HWCOLOR CURVES         2       4
$HMCURVE     3    3 curve_nul                                                                       
curve_nul                                                             
         2         0       1.0       1.0                              
                 0.0                 0.0
              1000.0                 0.0
*DEFINE_CURVE_TITLE
$HWCOLOR CURVES         3       5
$HMCURVE     1    1 Mat_Curev Quasi-static                                                          
Mat_Curev Quasi-static                                                
         3         0       1.01.0000E-03                              
                 0.0               306.0
             0.00112               415.0
             0.00218               445.0
               0.003               461.0
             0.00404               474.0
             0.00517               489.0
             0.00613               498.0
              0.0071               505.0
             0.00806               512.0
             0.00901               522.0
              0.0102               530.0
              0.0121               543.0
               0.013               550.0
               0.014               555.0
               0.015               561.0
              0.0159               567.0
              0.0171               572.0
              0.0181               577.0
              0.0204               592.0
$ ... 15 like lines cut
*END
$$<?xml version="1.0" encoding="utf-8"?>
$$<Altair_XML_Export>
$$    <UDM xmlns:SOAP-ENV="http://schemas.xmlsoap.org/soap/envelope/" xmlns:SOAP-ENC="http://schemas.xmlsoap.org/soap/encoding/" xmlns:xsi="http://www.w3.org/2001/XMLSchema-instance" xmlns:xsd="http://www.w3.org/2001/XMLSchema" xmlns:udmcfg="http://schemas.altair.com/AltairUDMRuntimeConfig" xmlns:udmxml="http://schemas.altair.com/AltairUDM" xmlns:importrules="http://schemas.altair.com/hsm/importru
$$        <udmxml:EntityCollection xsi:type="udmxml:EntityCollectionCType">
$$            <udmxml:Entity xsi:type="udmxml:AssemblyDMCType" displayName="HW_Assembly" contentDefinitionType="UDMAssemblyDM" id="33101771e5e7f3478ea8ee81ba46b87a:0">
$$                <udmxml:Children>
$$                    <udmxml:Child xsi:type="udmxml:ChildCType" refId="59618432ed44384b937170f7cabe02dd:0" timestamp="1653376311349710" childFlags="0" groupName="boas" contentDefinitionType="UDMBOA"/>
$$                </udmxml:Children>
$$            </udmxml:Entity>
$$            <udmxml:Entity xsi:type="udmxml:BOACType" displayName="HW_BOA" contentDefinitionType="UDMBOA" id="59618432ed44384b937170f7cabe02dd:0">
$$                <udmxml:Children>
$$                    <udmxml:Child xsi:type="udmxml:ChildCType" refId="27a2c4bc00a3dd4f89a4600197f329a9:0" timestamp="1653376311349710" childFlags="0" groupName="parts" contentDefinitionType="UDMPartProtoOcc">
$$                        <AdditionalIdList xsi:type="udmxml:AdditionalIdCType" xmlns="http://schemas.altair.com/AltairUDM" keyValue="Model" keyName="displayname" contentDefinitionType="UDMPartProtoOcc"/>
$$                    </udmxml:Child>
$$                </udmxml:Children>
$$            </udmxml:Entity>
$$            <udmxml:Entity xsi:type="udmxml:PartCType" displayName="Einspannung.p" contentDefinitionType="UDMPartProto" id="5416fec8d8b2cd40939f71f8b289e652:0">
$$                <udmxml:Attributes>
$$                    <udmxml:Attribute xsi:type="udmxml:AttributeCType" valueutf8="-" type="string" name="studyrevision" displayName="STUDY_REVISION">-</udmxml:Attribute>
$$                    <udmxml:Attribute xsi:type="udmxml:AttributeCType" valueutf8="Einspannung" type="string" name="HW_UID">Einspannung</udmxml:Attribute>
$$                    <udmxml:Attribute xsi:type="udmxml:AttributeCType" valueutf8="-" type="string" name="PLMXML_PRODUCTREVISION_REVISION">-</udmxml:Attribute>
$$                </udmxml:Attributes>
$$            </udmxml:Entity>
$$            <udmxml:Entity xsi:type="udmxml:PartCType" displayName="zug_test2.k.p" contentDefinitionType="UDMPartProto" id="a2d8c91568e8c1419dec25e61ef256d6:0">
$$                <udmxml:Attributes>
$$                    <udmxml:Attribute xsi:type="udmxml:AttributeCType" valueutf8="-" type="string" name="studyrevision" displayName="STUDY_REVISION">-</udmxml:Attribute>
$$                    <udmxml:Attribute xsi:type="udmxml:AttributeCType" valueutf8="zug_test2.k" type="string" name="HW_UID">zug_test2.k</udmxml:Attribute>
$$                    <udmxml:Attribute xsi:type="udmxml:AttributeCType" valueutf8="-" type="string" name="PLMXML_PRODUCTREVISION_REVISION">-</udmxml:Attribute>
$$                </udmxml:Attributes>
$$                <udmxml:Children>
$$                    <udmxml:Child xsi:type="udmxml:ChildCType" refId="e33b7e019480144f97eb0e502db3bca2:0" timestamp="1653376334309813" childFlags="0" groupName="partprotoinst" contentDefinitionType="UDMPartProtoInst"/>
$$                    <udmxml:Child xsi:type="udmxml:ChildCType" refId="bf760d30c45ea0479d3c31f426c15cdd:0" timestamp="1653376334309813" childFlags="0" groupName="partprotoinst" contentDefinitionType="UDMPartProtoInst"/>
$$                    <udmxml:Child xsi:type="udmxml:ChildCType" refId="b9eda7e8ad5f8546b74c4cd90aa98c17:0" timestamp="1653376334310810" childFlags="0" groupName="partprotoinst" contentDefinitionType="UDMPartProtoInst"/>
$$                    <udmxml:Child xsi:type="udmxml:ChildCType" refId="d0e48167304e9c40b40662375782768c:0" timestamp="1653376334310810" childFlags="0" groupName="partprotoinst" contentDefinitionType="UDMPartProtoInst"/>
$$                    <udmxml:Child xsi:type="udmxml:ChildCType" refId="533f03566d8c7d409952c96f52f32e58:0" timestamp="1653376334311807" childFlags="0" groupName="partprotoinst" contentDefinitionType="UDMPartProtoInst"/>
$$                    <udmxml:Child xsi:type="udmxml:ChildCType" refId="2bd94d6d04cd5a458a45ea9e6680d153:0" timestamp="1653376334311807" childFlags="0" groupName="partprotoinst" contentDefinitionType="UDMPartProtoInst"/>
$$                </udmxml:Children>
$$            </udmxml:Entity>
$$            <udmxml:Entity xsi:type="udmxml:PartCType" displayName="Model.p" contentDefinitionType="UDMPartProto" id="8a555ad02044ef4e920508f42220581a:0">
$$                <udmxml:Children>
$$                    <udmxml:Child xsi:type="udmxml:ChildCType" refId="241e5b1f7c512943ab6bfd1f1b5ed9bb:0" timestamp="1653376334308815" childFlags="0" groupName="partprotoinst" contentDefinitionType="UDMPartProtoInst"/>
$$                </udmxml:Children>
$$            </udmxml:Entity>
$$            <udmxml:Entity xsi:type="udmxml:PartCType" displayName="Einschnuerung.p" contentDefinitionType="UDMPartProto" id="94d5b462d31c4c40a1024b4e5248e330:0">
$$                <udmxml:Attributes>
$$                    <udmxml:Attribute xsi:type="udmxml:AttributeCType" valueutf8="-" type="string" name="studyrevision" displayName="STUDY_REVISION">-</udmxml:Attribute>
$$                    <udmxml:Attribute xsi:type="udmxml:AttributeCType" valueutf8="Einschnuerung" type="string" name="HW_UID">Einschnuerung</udmxml:Attribute>
$$                    <udmxml:Attribute xsi:type="udmxml:AttributeCType" valueutf8="-" type="string" name="PLMXML_PRODUCTREVISION_REVISION">-</udmxml:Attribute>
$$                </udmxml:Attributes>
$$            </udmxml:Entity>
$$            <udmxml:Entity xsi:type="udmxml:PartCType" displayName="Zugzone.p" contentDefinitionType="UDMPartProto" id="c9f7e17d4e041a4c84ab6599d982fa6c:0">
$$                <udmxml:Attributes>
$$                    <udmxml:Attribute xsi:type="udmxml:AttributeCType" valueutf8="-" type="string" name="studyrevision" displayName="STUDY_REVISION">-</udmxml:Attribute>
$$                    <udmxml:Attribute xsi:type="udmxml:AttributeCType" valueutf8="Zugzone" type="string" name="HW_UID">Zugzone</udmxml:Attribute>
$$                    <udmxml:Attribute xsi:type="udmxml:AttributeCType" valueutf8="-" type="string" name="PLMXML_PRODUCTREVISION_REVISION">-</udmxml:Attribute>
$$                </udmxml:Attributes>
$$            </udmxml:Entity>
$$            <udmxml:Entity xsi:type="udmxml:PartCType" displayName="Zugzeite.p" contentDefinitionType="UDMPartProto" id="da8f9351e34d3f488eca76074e34642b:0">
$$                <udmxml:Attributes>
$$                    <udmxml:Attribute xsi:type="udmxml:AttributeCType" valueutf8="-" type="string" name="studyrevision" displayName="STUDY_REVISION">-</udmxml:Attribute>
$$                    <udmxml:Attribute xsi:type="udmxml:AttributeCType" valueutf8="Zugzeite" type="string" name="HW_UID">Zugzeite</udmxml:Attribute>
$$                    <udmxml:Attribute xsi:type="udmxml:AttributeCType" valueutf8="-" type="string" name="PLMXML_PRODUCTREVISION_REVISION">-</udmxml:Attribute>
$$                </udmxml:Attributes>
$$            </udmxml:Entity>
$$            <udmxml:Entity xsi:type="udmxml:PartCType" displayName="Einsp_def.p" contentDefinitionType="UDMPartProto" id="393820c645454e469ec47cb3d0d015f6:0">
$$                <udmxml:Attributes>
$$                    <udmxml:Attribute xsi:type="udmxml:AttributeCType" valueutf8="-" type="string" name="studyrevision" displayName="STUDY_REVISION">-</udmxml:Attribute>
$$                    <udmxml:Attribute xsi:type="udmxml:AttributeCType" valueutf8="Einsp_def" type="string" name="HW_UID">Einsp_def</udmxml:Attribute>
$$                    <udmxml:Attribute xsi:type="udmxml:AttributeCType" valueutf8="-" type="string" name="PLMXML_PRODUCTREVISION_REVISION">-</udmxml:Attribute>
$$                </udmxml:Attributes>
$$            </udmxml:Entity>
$$            <udmxml:Entity xsi:type="udmxml:PartCType" displayName="Zug_def.p" contentDefinitionType="UDMPartProto" id="de022584781bfd4d86a2774c7e8e2762:0">
$$                <udmxml:Attributes>
$$                    <udmxml:Attribute xsi:type="udmxml:AttributeCType" valueutf8="-" type="string" name="studyrevision" displayName="STUDY_REVISION">-</udmxml:Attribute>
$$                    <udmxml:Attribute xsi:type="udmxml:AttributeCType" valueutf8="Zug_def" type="string" name="HW_UID">Zug_def</udmxml:Attribute>
$$                    <udmxml:Attribute xsi:type="udmxml:AttributeCType" valueutf8="-" type="string" name="PLMXML_PRODUCTREVISION_REVISION">-</udmxml:Attribute>
$$                </udmxml:Attributes>
$$            </udmxml:Entity>
$$            <udmxml:Entity xsi:type="udmxml:PartCType" displayName="Einspannung" contentDefinitionType="UDMPartProtoInst" id="e33b7e019480144f97eb0e502db3bca2:0">
$$                <udmxml:Attributes>
$$                    <udmxml:Attribute xsi:type="udmxml:AttributeCType" valueutf8="1 0 0 0 0 1 0 0 0 0 1 0 0 0 0 1" type="string" name="trfmtx" displayName="Transformation matrix">1 0 0 0 0 1 0 0 0 0 1 0 0 0 0 1</udmxml:Attribute>
$$                    <udmxml:Attribute xsi:type="udmxml:AttributeCType" valueutf8="true" type="boolean" name="trfmtxisrel" displayName="Is matrix relative?">true</udmxml:Attribute>
$$                </udmxml:Attributes>
$$                <udmxml:Children>
$$                    <udmxml:Child xsi:type="udmxml:ChildCType" refId="5416fec8d8b2cd40939f71f8b289e652:0" timestamp="1653376334309813" childFlags="0" groupName="partprotos" contentDefinitionType="UDMPartProto"/>
$$                </udmxml:Children>
$$                <TransformationMatrix xsi:type="udmxml:TransformationMatrixCType" xmlns="http://schemas.altair.com/AltairUDM" transformationMatrixIsRelative="true" transformationMatrix="1 0 0 0 0 1 0 0 0 0 1 0 0 0 0 1"/>
$$            </udmxml:Entity>
$$            <udmxml:Entity xsi:type="udmxml:PartCType" displayName="zug_test2.k" contentDefinitionType="UDMPartProtoInst" id="241e5b1f7c512943ab6bfd1f1b5ed9bb:0">
$$                <udmxml:Attributes>
$$                    <udmxml:Attribute xsi:type="udmxml:AttributeCType" valueutf8="1 0 0 0 0 1 0 0 0 0 1 0 0 0 0 1" type="string" name="trfmtx" displayName="Transformation matrix">1 0 0 0 0 1 0 0 0 0 1 0 0 0 0 1</udmxml:Attribute>
$$                    <udmxml:Attribute xsi:type="udmxml:AttributeCType" valueutf8="true" type="boolean" name="trfmtxisrel" displayName="Is matrix relative?">true</udmxml:Attribute>
$$                </udmxml:Attributes>
$$                <udmxml:Children>
$$                    <udmxml:Child xsi:type="udmxml:ChildCType" refId="a2d8c91568e8c1419dec25e61ef256d6:0" timestamp="1653376334308815" childFlags="0" groupName="partprotos" contentDefinitionType="UDMPartProto"/>
$$                </udmxml:Children>
$$                <TransformationMatrix xsi:type="udmxml:TransformationMatrixCType" xmlns="http://schemas.altair.com/AltairUDM" transformationMatrixIsRelative="true" transformationMatrix="1 0 0 0 0 1 0 0 0 0 1 0 0 0 0 1"/>
$$            </udmxml:Entity>
$$            <udmxml:Entity xsi:type="udmxml:PartCType" displayName="Einschnuerung" contentDefinitionType="UDMPartProtoInst" id="bf760d30c45ea0479d3c31f426c15cdd:0">
$$                <udmxml:Attributes>
$$                    <udmxml:Attribute xsi:type="udmxml:AttributeCType" valueutf8="1 0 0 0 0 1 0 0 0 0 1 0 0 0 0 1" type="string" name="trfmtx" displayName="Transformation matrix">1 0 0 0 0 1 0 0 0 0 1 0 0 0 0 1</udmxml:Attribute>
$$                    <udmxml:Attribute xsi:type="udmxml:AttributeCType" valueutf8="true" type="boolean" name="trfmtxisrel" displayName="Is matrix relative?">true</udmxml:Attribute>
$$                </udmxml:Attributes>
$$                <udmxml:Children>
$$                    <udmxml:Child xsi:type="udmxml:ChildCType" refId="94d5b462d31c4c40a1024b4e5248e330:0" timestamp="1653376334309813" childFlags="0" groupName="partprotos" contentDefinitionType="UDMPartProto"/>
$$                </udmxml:Children>
$$                <TransformationMatrix xsi:type="udmxml:TransformationMatrixCType" xmlns="http://schemas.altair.com/AltairUDM" transformationMatrixIsRelative="true" transformationMatrix="1 0 0 0 0 1 0 0 0 0 1 0 0 0 0 1"/>
$$            </udmxml:Entity>
$$            <udmxml:Entity xsi:type="udmxml:PartCType" displayName="Zugzone" contentDefinitionType="UDMPartProtoInst" id="b9eda7e8ad5f8546b74c4cd90aa98c17:0">
$$                <udmxml:Attributes>
$$                    <udmxml:Attribute xsi:type="udmxml:AttributeCType" valueutf8="1 0 0 0 0 1 0 0 0 0 1 0 0 0 0 1" type="string" name="trfmtx" displayName="Transformation matrix">1 0 0 0 0 1 0 0 0 0 1 0 0 0 0 1</udmxml:Attribute>
$$                    <udmxml:Attribute xsi:type="udmxml:AttributeCType" valueutf8="true" type="boolean" name="trfmtxisrel" displayName="Is matrix relative?">true</udmxml:Attribute>
$$                </udmxml:Attributes>
$$                <udmxml:Children>
$$                    <udmxml:Child xsi:type="udmxml:ChildCType" refId="c9f7e17d4e041a4c84ab6599d982fa6c:0" timestamp="1653376334310810" childFlags="0" groupName="partprotos" contentDefinitionType="UDMPartProto"/>
$$                </udmxml:Children>
$$                <TransformationMatrix xsi:type="udmxml:TransformationMatrixCType" xmlns="http://schemas.altair.com/AltairUDM" transformationMatrixIsRelative="true" transformationMatrix="1 0 0 0 0 1 0 0 0 0 1 0 0 0 0 1"/>
$$            </udmxml:Entity>
$$            <udmxml:Entity xsi:type="udmxml:PartCType" displayName="Zugzeite" contentDefinitionType="UDMPartProtoInst" id="d0e48167304e9c40b40662375782768c:0">
$$                <udmxml:Attributes>
$$                    <udmxml:Attribute xsi:type="udmxml:AttributeCType" valueutf8="1 0 0 0 0 1 0 0 0 0 1 0 0 0 0 1" type="string" name="trfmtx" displayName="Transformation matrix">1 0 0 0 0 1 0 0 0 0 1 0 0 0 0 1</udmxml:Attribute>
$$                    <udmxml:Attribute xsi:type="udmxml:AttributeCType" valueutf8="true" type="boolean" name="trfmtxisrel" displayName="Is matrix relative?">true</udmxml:Attribute>
$$                </udmxml:Attributes>
$$                <udmxml:Children>
$$                    <udmxml:Child xsi:type="udmxml:ChildCType" refId="da8f9351e34d3f488eca76074e34642b:0" timestamp="1653376334310810" childFlags="0" groupName="partprotos" contentDefinitionType="UDMPartProto"/>
$$                </udmxml:Children>
$$                <TransformationMatrix xsi:type="udmxml:TransformationMatrixCType" xmlns="http://schemas.altair.com/AltairUDM" transformationMatrixIsRelative="true" transformationMatrix="1 0 0 0 0 1 0 0 0 0 1 0 0 0 0 1"/>
$$            </udmxml:Entity>
$$            <udmxml:Entity xsi:type="udmxml:PartCType" displayName="Einsp_def" contentDefinitionType="UDMPartProtoInst" id="533f03566d8c7d409952c96f52f32e58:0">
$$                <udmxml:Attributes>
$$                    <udmxml:Attribute xsi:type="udmxml:AttributeCType" valueutf8="1 0 0 0 0 1 0 0 0 0 1 0 0 0 0 1" type="string" name="trfmtx" displayName="Transformation matrix">1 0 0 0 0 1 0 0 0 0 1 0 0 0 0 1</udmxml:Attribute>
$$                    <udmxml:Attribute xsi:type="udmxml:AttributeCType" valueutf8="true" type="boolean" name="trfmtxisrel" displayName="Is matrix relative?">true</udmxml:Attribute>
$$                </udmxml:Attributes>
$$                <udmxml:Children>
$$                    <udmxml:Child xsi:type="udmxml:ChildCType" refId="393820c645454e469ec47cb3d0d015f6:0" timestamp="1653376334311807" childFlags="0" groupName="partprotos" contentDefinitionType="UDMPartProto"/>
$$                </udmxml:Children>
$$                <TransformationMatrix xsi:type="udmxml:TransformationMatrixCType" xmlns="http://schemas.altair.com/AltairUDM" transformationMatrixIsRelative="true" transformationMatrix="1 0 0 0 0 1 0 0 0 0 1 0 0 0 0 1"/>
$$            </udmxml:Entity>
$$            <udmxml:Entity xsi:type="udmxml:PartCType" displayName="Zug_def" contentDefinitionType="UDMPartProtoInst" id="2bd94d6d04cd5a458a45ea9e6680d153:0">
$$                <udmxml:Attributes>
$$                    <udmxml:Attribute xsi:type="udmxml:AttributeCType" valueutf8="1 0 0 0 0 1 0 0 0 0 1 0 0 0 0 1" type="string" name="trfmtx" displayName="Transformation matrix">1 0 0 0 0 1 0 0 0 0 1 0 0 0 0 1</udmxml:Attribute>
$$                    <udmxml:Attribute xsi:type="udmxml:AttributeCType" valueutf8="true" type="boolean" name="trfmtxisrel" displayName="Is matrix relative?">true</udmxml:Attribute>
$$                </udmxml:Attributes>
$$                <udmxml:Children>
$$                    <udmxml:Child xsi:type="udmxml:ChildCType" refId="de022584781bfd4d86a2774c7e8e2762:0" timestamp="1653376334311807" childFlags="0" groupName="partprotos" contentDefinitionType="UDMPartProto"/>
$$                </udmxml:Children>
$$                <TransformationMatrix xsi:type="udmxml:TransformationMatrixCType" xmlns="http://schemas.altair.com/AltairUDM" transformationMatrixIsRelative="true" transformationMatrix="1 0 0 0 0 1 0 0 0 0 1 0 0 0 0 1"/>
$$            </udmxml:Entity>
$$            <udmxml:Entity xsi:type="udmxml:PartCType" protoInstanceRefId="e33b7e019480144f97eb0e502db3bca2:0" prototypeRefId="5416fec8d8b2cd40939f71f8b289e652:0" displayName="Einspannung" contentDefinitionType="UDMPartProtoOcc" id="49e701bb0c6311448565a88e2e703465:0">
$$                <udmxml:Attributes>
$$                    <udmxml:Attribute xsi:type="udmxml:AttributeCType" valueutf8="5416fec8d8b2cd40939f71f8b289e652" type="string" name="protoref" displayName="Prototype reference">5416fec8d8b2cd40939f71f8b289e652</udmxml:Attribute>
$$                    <udmxml:Attribute xsi:type="udmxml:AttributeCType" valueutf8="e33b7e019480144f97eb0e502db3bca2" type="string" name="protoinstanceref" displayName="Prototype Instance reference">e33b7e019480144f97eb0e502db3bca2</udmxml:Attribute>
$$                    <udmxml:Attribute xsi:type="udmxml:AttributeCType" valueutf8="Components(1)" type="string" name="EntitySelectionExp">Components(1)</udmxml:Attribute>
$$                    <udmxml:Attribute xsi:type="udmxml:AttributeCType" valueutf8="1" type="string" name="SelectionExp">1</udmxml:Attribute>
$$                    <udmxml:Attribute xsi:type="udmxml:AttributeCType" valueutf8="7" type="string" name="UdmxmlString_HmOccurrenceColor">7</udmxml:Attribute>
$$                    <udmxml:Attribute xsi:type="udmxml:AttributeCType" valueutf8="6" type="string" name="UdmxmlString_HmOccurrenceId">6</udmxml:Attribute>
$$                    <udmxml:Attribute xsi:type="udmxml:AttributeCType" valueutf8="16776960" type="string" name="UdmxmlString_HmOccurrenceTrueColor">16776960</udmxml:Attribute>
$$                </udmxml:Attributes>
$$            </udmxml:Entity>
$$            <udmxml:Entity xsi:type="udmxml:PartCType" protoInstanceRefId="241e5b1f7c512943ab6bfd1f1b5ed9bb:0" prototypeRefId="a2d8c91568e8c1419dec25e61ef256d6:0" displayName="zug_test2.k" contentDefinitionType="UDMPartProtoOcc" id="7bc0e0da9b59e941947c0791fa6e4884:0">
$$                <udmxml:Attributes>
$$                    <udmxml:Attribute xsi:type="udmxml:AttributeCType" valueutf8="a2d8c91568e8c1419dec25e61ef256d6" type="string" name="protoref" displayName="Prototype reference">a2d8c91568e8c1419dec25e61ef256d6</udmxml:Attribute>
$$                    <udmxml:Attribute xsi:type="udmxml:AttributeCType" valueutf8="241e5b1f7c512943ab6bfd1f1b5ed9bb" type="string" name="protoinstanceref" displayName="Prototype Instance reference">241e5b1f7c512943ab6bfd1f1b5ed9bb</udmxml:Attribute>
$$                    <udmxml:Attribute xsi:type="udmxml:AttributeCType" valueutf8="6" type="string" name="UdmxmlString_HmOccurrenceColor">6</udmxml:Attribute>
$$                    <udmxml:Attribute xsi:type="udmxml:AttributeCType" valueutf8="4" type="string" name="UdmxmlString_HmOccurrenceId">4</udmxml:Attribute>
$$                    <udmxml:Attribute xsi:type="udmxml:AttributeCType" valueutf8="65535" type="string" name="UdmxmlString_HmOccurrenceTrueColor">65535</udmxml:Attribute>
$$                </udmxml:Attributes>
$$                <udmxml:Children>
$$                    <udmxml:Child xsi:type="udmxml:ChildCType" refId="49e701bb0c6311448565a88e2e703465:0" timestamp="1653376334309813" childFlags="0" groupName="partprotooccs" contentDefinitionType="UDMPartProtoOcc">
$$                        <AdditionalIdList xsi:type="udmxml:AdditionalIdCType" xmlns="http://schemas.altair.com/AltairUDM" keyValue="Einspannung" keyName="displayname" contentDefinitionType="UDMPartProtoOcc"/>
$$                    </udmxml:Child>
$$                    <udmxml:Child xsi:type="udmxml:ChildCType" refId="5e277eeba871764ab800f577e2e92412:0" timestamp="1653376334310810" childFlags="0" groupName="partprotooccs" contentDefinitionType="UDMPartProtoOcc">
$$                        <AdditionalIdList xsi:type="udmxml:AdditionalIdCType" xmlns="http://schemas.altair.com/AltairUDM" keyValue="Einschnuerung" keyName="displayname" contentDefinitionType="UDMPartProtoOcc"/>
$$                    </udmxml:Child>
$$                    <udmxml:Child xsi:type="udmxml:ChildCType" refId="798029d89039a94f8c23d56528336d61:0" timestamp="1653376334310810" childFlags="0" groupName="partprotooccs" contentDefinitionType="UDMPartProtoOcc">
$$                        <AdditionalIdList xsi:type="udmxml:AdditionalIdCType" xmlns="http://schemas.altair.com/AltairUDM" keyValue="Zugzone" keyName="displayname" contentDefinitionType="UDMPartProtoOcc"/>
$$                    </udmxml:Child>
$$                    <udmxml:Child xsi:type="udmxml:ChildCType" refId="13dbd86eac1cd049b9ca7f0231cdc20a:0" timestamp="1653376334310810" childFlags="0" groupName="partprotooccs" contentDefinitionType="UDMPartProtoOcc">
$$                        <AdditionalIdList xsi:type="udmxml:AdditionalIdCType" xmlns="http://schemas.altair.com/AltairUDM" keyValue="Zugzeite" keyName="displayname" contentDefinitionType="UDMPartProtoOcc"/>
$$                    </udmxml:Child>
$$                    <udmxml:Child xsi:type="udmxml:ChildCType" refId="b6134312abc01f4688eb3b98451a3530:0" timestamp="1653376334311807" childFlags="0" groupName="partprotooccs" contentDefinitionType="UDMPartProtoOcc">
$$                        <AdditionalIdList xsi:type="udmxml:AdditionalIdCType" xmlns="http://schemas.altair.com/AltairUDM" keyValue="Einsp_def" keyName="displayname" contentDefinitionType="UDMPartProtoOcc"/>
$$                    </udmxml:Child>
$$                    <udmxml:Child xsi:type="udmxml:ChildCType" refId="066f434bf7ca164eb13f332461348c53:0" timestamp="1653376334311807" childFlags="0" groupName="partprotooccs" contentDefinitionType="UDMPartProtoOcc">
$$                        <AdditionalIdList xsi:type="udmxml:AdditionalIdCType" xmlns="http://schemas.altair.com/AltairUDM" keyValue="Zug_def" keyName="displayname" contentDefinitionType="UDMPartProtoOcc"/>
$$                    </udmxml:Child>
$$                </udmxml:Children>
$$            </udmxml:Entity>
$$            <udmxml:Entity xsi:type="udmxml:PartCType" prototypeRefId="8a555ad02044ef4e920508f42220581a:0" displayName="Model" contentDefinitionType="UDMPartProtoOcc" id="27a2c4bc00a3dd4f89a4600197f329a9:0">
$$                <udmxml:Attributes>
$$                    <udmxml:Attribute xsi:type="udmxml:AttributeCType" valueutf8="8a555ad02044ef4e920508f42220581a" type="string" name="protoref" displayName="Prototype reference">8a555ad02044ef4e920508f42220581a</udmxml:Attribute>
$$                    <udmxml:Attribute xsi:type="udmxml:AttributeCType" valueutf8="5" type="string" name="UdmxmlString_HmOccurrenceColor">5</udmxml:Attribute>
$$                    <udmxml:Attribute xsi:type="udmxml:AttributeCType" valueutf8="2" type="string" name="UdmxmlString_HmOccurrenceId">2</udmxml:Attribute>
$$                    <udmxml:Attribute xsi:type="udmxml:AttributeCType" valueutf8="16711680" type="string" name="UdmxmlString_HmOccurrenceTrueColor">16711680</udmxml:Attribute>
$$                    <udmxml:Attribute xsi:type="udmxml:AttributeCType" valueutf8="true" type="boolean" name="pseudo root">true</udmxml:Attribute>
$$                </udmxml:Attributes>
$$                <udmxml:Children>
$$                    <udmxml:Child xsi:type="udmxml:ChildCType" refId="7bc0e0da9b59e941947c0791fa6e4884:0" timestamp="1653376334308815" childFlags="0" groupName="partprotooccs" contentDefinitionType="UDMPartProtoOcc">
$$                        <AdditionalIdList xsi:type="udmxml:AdditionalIdCType" xmlns="http://schemas.altair.com/AltairUDM" keyValue="zug_test2.k" keyName="displayname" contentDefinitionType="UDMPartProtoOcc"/>
$$                    </udmxml:Child>
$$                </udmxml:Children>
$$            </udmxml:Entity>
$$            <udmxml:Entity xsi:type="udmxml:PartCType" protoInstanceRefId="bf760d30c45ea0479d3c31f426c15cdd:0" prototypeRefId="94d5b462d31c4c40a1024b4e5248e330:0" displayName="Einschnuerung" contentDefinitionType="UDMPartProtoOcc" id="5e277eeba871764ab800f577e2e92412:0">
$$                <udmxml:Attributes>
$$                    <udmxml:Attribute xsi:type="udmxml:AttributeCType" valueutf8="94d5b462d31c4c40a1024b4e5248e330" type="string" name="protoref" displayName="Prototype reference">94d5b462d31c4c40a1024b4e5248e330</udmxml:Attribute>
$$                    <udmxml:Attribute xsi:type="udmxml:AttributeCType" valueutf8="bf760d30c45ea0479d3c31f426c15cdd" type="string" name="protoinstanceref" displayName="Prototype Instance reference">bf760d30c45ea0479d3c31f426c15cdd</udmxml:Attribute>
$$                    <udmxml:Attribute xsi:type="udmxml:AttributeCType" valueutf8="Components(2)" type="string" name="EntitySelectionExp">Components(2)</udmxml:Attribute>
$$                    <udmxml:Attribute xsi:type="udmxml:AttributeCType" valueutf8="2" type="string" name="SelectionExp">2</udmxml:Attribute>
$$                    <udmxml:Attribute xsi:type="udmxml:AttributeCType" valueutf8="8" type="string" name="UdmxmlString_HmOccurrenceColor">8</udmxml:Attribute>
$$                    <udmxml:Attribute xsi:type="udmxml:AttributeCType" valueutf8="8" type="string" name="UdmxmlString_HmOccurrenceId">8</udmxml:Attribute>
$$                    <udmxml:Attribute xsi:type="udmxml:AttributeCType" valueutf8="16711935" type="string" name="UdmxmlString_HmOccurrenceTrueColor">16711935</udmxml:Attribute>
$$                </udmxml:Attributes>
$$            </udmxml:Entity>
$$            <udmxml:Entity xsi:type="udmxml:PartCType" protoInstanceRefId="b9eda7e8ad5f8546b74c4cd90aa98c17:0" prototypeRefId="c9f7e17d4e041a4c84ab6599d982fa6c:0" displayName="Zugzone" contentDefinitionType="UDMPartProtoOcc" id="798029d89039a94f8c23d56528336d61:0">
$$                <udmxml:Attributes>
$$                    <udmxml:Attribute xsi:type="udmxml:AttributeCType" valueutf8="c9f7e17d4e041a4c84ab6599d982fa6c" type="string" name="protoref" displayName="Prototype reference">c9f7e17d4e041a4c84ab6599d982fa6c</udmxml:Attribute>
$$                    <udmxml:Attribute xsi:type="udmxml:AttributeCType" valueutf8="b9eda7e8ad5f8546b74c4cd90aa98c17" type="string" name="protoinstanceref" displayName="Prototype Instance reference">b9eda7e8ad5f8546b74c4cd90aa98c17</udmxml:Attribute>
$$                    <udmxml:Attribute xsi:type="udmxml:AttributeCType" valueutf8="Components(3)" type="string" name="EntitySelectionExp">Components(3)</udmxml:Attribute>
$$                    <udmxml:Attribute xsi:type="udmxml:AttributeCType" valueutf8="3" type="string" name="SelectionExp">3</udmxml:Attribute>
$$                    <udmxml:Attribute xsi:type="udmxml:AttributeCType" valueutf8="17" type="string" name="UdmxmlString_HmOccurrenceColor">17</udmxml:Attribute>
$$                    <udmxml:Attribute xsi:type="udmxml:AttributeCType" valueutf8="10" type="string" name="UdmxmlString_HmOccurrenceId">10</udmxml:Attribute>
$$                    <udmxml:Attribute xsi:type="udmxml:AttributeCType" valueutf8="1521918" type="string" name="UdmxmlString_HmOccurrenceTrueColor">1521918</udmxml:Attribute>
$$                </udmxml:Attributes>
$$            </udmxml:Entity>
$$            <udmxml:Entity xsi:type="udmxml:PartCType" protoInstanceRefId="d0e48167304e9c40b40662375782768c:0" prototypeRefId="da8f9351e34d3f488eca76074e34642b:0" displayName="Zugzeite" contentDefinitionType="UDMPartProtoOcc" id="13dbd86eac1cd049b9ca7f0231cdc20a:0">
$$                <udmxml:Attributes>
$$                    <udmxml:Attribute xsi:type="udmxml:AttributeCType" valueutf8="da8f9351e34d3f488eca76074e34642b" type="string" name="protoref" displayName="Prototype reference">da8f9351e34d3f488eca76074e34642b</udmxml:Attribute>
$$                    <udmxml:Attribute xsi:type="udmxml:AttributeCType" valueutf8="d0e48167304e9c40b40662375782768c" type="string" name="protoinstanceref" displayName="Prototype Instance reference">d0e48167304e9c40b40662375782768c</udmxml:Attribute>
$$                    <udmxml:Attribute xsi:type="udmxml:AttributeCType" valueutf8="Components(4)" type="string" name="EntitySelectionExp">Components(4)</udmxml:Attribute>
$$                    <udmxml:Attribute xsi:type="udmxml:AttributeCType" valueutf8="4" type="string" name="SelectionExp">4</udmxml:Attribute>
$$                    <udmxml:Attribute xsi:type="udmxml:AttributeCType" valueutf8="20" type="string" name="UdmxmlString_HmOccurrenceColor">20</udmxml:Attribute>
$$                    <udmxml:Attribute xsi:type="udmxml:AttributeCType" valueutf8="12" type="string" name="UdmxmlString_HmOccurrenceId">12</udmxml:Attribute>
$$                    <udmxml:Attribute xsi:type="udmxml:AttributeCType" valueutf8="1508738" type="string" name="UdmxmlString_HmOccurrenceTrueColor">1508738</udmxml:Attribute>
$$                </udmxml:Attributes>
$$            </udmxml:Entity>
$$            <udmxml:Entity xsi:type="udmxml:PartCType" protoInstanceRefId="533f03566d8c7d409952c96f52f32e58:0" prototypeRefId="393820c645454e469ec47cb3d0d015f6:0" displayName="Einsp_def" contentDefinitionType="UDMPartProtoOcc" id="b6134312abc01f4688eb3b98451a3530:0">
$$                <udmxml:Attributes>
$$                    <udmxml:Attribute xsi:type="udmxml:AttributeCType" valueutf8="393820c645454e469ec47cb3d0d015f6" type="string" name="protoref" displayName="Prototype reference">393820c645454e469ec47cb3d0d015f6</udmxml:Attribute>
$$                    <udmxml:Attribute xsi:type="udmxml:AttributeCType" valueutf8="533f03566d8c7d409952c96f52f32e58" type="string" name="protoinstanceref" displayName="Prototype Instance reference">533f03566d8c7d409952c96f52f32e58</udmxml:Attribute>
$$                    <udmxml:Attribute xsi:type="udmxml:AttributeCType" valueutf8="Components(5)" type="string" name="EntitySelectionExp">Components(5)</udmxml:Attribute>
$$                    <udmxml:Attribute xsi:type="udmxml:AttributeCType" valueutf8="5" type="string" name="SelectionExp">5</udmxml:Attribute>
$$                    <udmxml:Attribute xsi:type="udmxml:AttributeCType" valueutf8="21" type="string" name="UdmxmlString_HmOccurrenceColor">21</udmxml:Attribute>
$$                    <udmxml:Attribute xsi:type="udmxml:AttributeCType" valueutf8="14" type="string" name="UdmxmlString_HmOccurrenceId">14</udmxml:Attribute>
$$                    <udmxml:Attribute xsi:type="udmxml:AttributeCType" valueutf8="16740145" type="string" name="UdmxmlString_HmOccurrenceTrueColor">16740145</udmxml:Attribute>
$$                </udmxml:Attributes>
$$            </udmxml:Entity>
$$            <udmxml:Entity xsi:type="udmxml:PartCType" protoInstanceRefId="2bd94d6d04cd5a458a45ea9e6680d153:0" prototypeRefId="de022584781bfd4d86a2774c7e8e2762:0" displayName="Zug_def" contentDefinitionType="UDMPartProtoOcc" id="066f434bf7ca164eb13f332461348c53:0">
$$                <udmxml:Attributes>
$$                    <udmxml:Attribute xsi:type="udmxml:AttributeCType" valueutf8="de022584781bfd4d86a2774c7e8e2762" type="string" name="protoref" displayName="Prototype reference">de022584781bfd4d86a2774c7e8e2762</udmxml:Attribute>
$$                    <udmxml:Attribute xsi:type="udmxml:AttributeCType" valueutf8="2bd94d6d04cd5a458a45ea9e6680d153" type="string" name="protoinstanceref" displayName="Prototype Instance reference">2bd94d6d04cd5a458a45ea9e6680d153</udmxml:Attribute>
$$                    <udmxml:Attribute xsi:type="udmxml:AttributeCType" valueutf8="Components(6)" type="string" name="EntitySelectionExp">Components(6)</udmxml:Attribute>
$$                    <udmxml:Attribute xsi:type="udmxml:AttributeCType" valueutf8="6" type="string" name="SelectionExp">6</udmxml:Attribute>
$$                    <udmxml:Attribute xsi:type="udmxml:AttributeCType" valueutf8="24" type="string" name="UdmxmlString_HmOccurrenceColor">24</udmxml:Attribute>
$$                    <udmxml:Attribute xsi:type="udmxml:AttributeCType" valueutf8="16" type="string" name="UdmxmlString_HmOccurrenceId">16</udmxml:Attribute>
$$                    <udmxml:Attribute xsi:type="udmxml:AttributeCType" valueutf8="8270101" type="string" name="UdmxmlString_HmOccurrenceTrueColor">8270101</udmxml:Attribute>
$$                </udmxml:Attributes>
$$            </udmxml:Entity>
$$        </udmxml:EntityCollection>
$$        <udmxml:RelationCollection xsi:type="udmxml:RelationCollectionCType"/>
$$        <udmxml:RootEntities xsi:type="udmxml:RootEntityCollectionCType">
$$            <udmxml:ItemId>33101771e5e7f3478ea8ee81ba46b87a:0</udmxml:ItemId>
$$        </udmxml:RootEntities>
$$    </UDM>
$$</Altair_XML_Export>
